Circuit: * Z:\home\linus\Dokument\aumlHardware\schematics\HomeAutomation\AVR\expansion\RGBdriverModule\ltSpice\RGBW-driver.asc

u1:dvc: Activation energy, Eg=1.33, too small, limited to 0.1
Direct Newton iteration for .op point succeeded.
Heightened Def Con from 2.99573e-005 to 2.99593e-005
Heightened Def Con from 3.00595e-005 to 3.00665e-005
Heightened Def Con from 3.5002e-005 to 3.5003e-005
Heightened Def Con from 3.8002e-005 to 3.8004e-005
Heightened Def Con from 4.29574e-005 to 4.29584e-005
Heightened Def Con from 4.3e-005 to 4.3001e-005
Heightened Def Con from 4.30023e-005 to 4.30033e-005
Heightened Def Con from 4.6004e-005 to 4.6005e-005
Heightened Def Con from 5.1002e-005 to 5.1003e-005
Heightened Def Con from 5.40025e-005 to 5.4004e-005
Heightened Def Con from 5.40045e-005 to 5.40055e-005
Heightened Def Con from 6.2002e-005 to 6.2004e-005
Heightened Def Con from 6.20052e-005 to 6.20072e-005
Heightened Def Con from 6.69969e-005 to 6.69989e-005
Heightened Def Con from 6.70002e-005 to 6.7002e-005
Heightened Def Con from 6.99593e-005 to 6.99603e-005
Heightened Def Con from 7.00022e-005 to 7.0004e-005
Heightened Def Con from 7.50021e-005 to 7.50031e-005
Heightened Def Con from 7.80041e-005 to 7.80051e-005
Heightened Def Con from 8.30004e-005 to 8.3002e-005
Heightened Def Con from 8.30025e-005 to 8.30035e-005
Heightened Def Con from 8.99595e-005 to 8.99615e-005
Heightened Def Con from 9.0004e-005 to 9.0004e-005
Heightened Def Con from 9.0004e-005 +to 9.00042e-005
Heightened Def Con from 9.40022e-005 to 9.4004e-005
Heightened Def Con from 9.90023e-005 to 9.90033e-005
Heightened Def Con from 0.000102002 to 0.000102004
Heightened Def Con from 0.000107 to 0.000107002
Heightened Def Con from 0.000115002 to 0.000115004
Heightened Def Con from 0.000123 to 0.000123002
Heightened Def Con from 0.000123002 to 0.000123003
Heightened Def Con from 0.000125998 to 0.000125999
Heightened Def Con from 0.000126004 to 0.000126005
Heightened Def Con from 0.000130059 to 0.000130063
Heightened Def Con from 0.000131001 to 0.000131002
Heightened Def Con from 0.000142002 to 0.000142004
Heightened Def Con from 0.000147 to 0.000147002
Heightened Def Con from 0.000150002 to 0.000150004
Heightened Def Con from 0.000155 to 0.000155002
Heightened Def Con from 0.000163003 to 0.000163005
Heightened Def Con from 0.000166002 to 0.000166004
Heightened Def Con from 0.000171002 to 0.000171003
Heightened Def Con from 0.000174004 to 0.000174005
Heightened Def Con from 0.000179 to 0.000179002
Heightened Def Con from 0.000182003 to 0.000182004
Heightened Def Con from 0.000186957 to 0.000186959
Heightened Def Con from 0.000187 to 0.000187002
Heightened Def Con from 0.000194973 to 0.000194975
Heightened Def Con from 0.000195 to 0.000195001
Heightened Def Con from 0.000195003 to 0.000195005
Heightened Def Con from 0.00023 to 0.000230002
Heightened Def Con from 0.00023006 to 0.000230063
Heightened Def Con from 0.00029 to 0.000290001
Heightened Def Con from 0.000290001 +to 0.000290002
Heightened Def Con from 0.000290002 to 0.000290002
Heightened Def Con from 0.00033 to 0.000330002
Heightened Def Con from 0.000330059 to 0.000330062
Heightened Def Con from 0.000389959 to 0.000389961
Heightened Def Con from 0.000390002 to 0.000390002

Date: Sun Apr 03 15:41:08 2011
Total elapsed time: 1.378 seconds.

tnom = 27
temp = 27
method = modified trap
totiter = 20805
traniter = 20759
tranpoints = 4934
accept = 3576
rejected = 1419
matrix size = 135
fillins = 175
solver = Alternate
Thread vector: 35.9/29.9[2] 11.6/9.3[2] 7.9/6.8[2] 2.5/2.5[1]  2592/500
Matrix Compiler1: 20,1 KB object code size  12.7/7.1/[3.0]
Matrix Compiler2: 15,5 KB object code size  4.9/5.3/[2.9]


