Circuit: * Z:\home\linus\Dokument\auml_hardware\schematics\HomeAutomation\AVR\expansion\RGBdriverModule\ltSpice\RGBW-driver.asc

WARNING: Node U1:32 is floating.
WARNING: Node U2:32 is floating.

u2:dvc: Activation energy, Eg=1.33, too small, limited to 0.1
u1:dvc: Activation energy, Eg=1.33, too small, limited to 0.1
Instance "m:u4:6": Length shorter than recommended for a level 2 MOSFET.
Instance "m:u4:5": Length shorter than recommended for a level 2 MOSFET.
Direct Newton iteration for .op point succeeded.
Heightened Def Con from 4.79013e-007 to 4.79013e-007
Heightened Def Con from 4.79013e-007 to 4.79013e-007
Heightened Def Con from 4.79013e-007 +to 4.79013e-007
Heightened Def Con from 4.79013e-007 +to 4.79013e-007
Heightened Def Con from 4.79013e-007 +to 4.79013e-007
Heightened Def Con from 4.79013e-007 +to 4.79013e-007
Heightened Def Con from 4.79013e-007 +to 4.79013e-007
Heightened Def Con from 4.79013e-007 ++++++++++++++++++++++++++to 4.86013e-007
Heightened Def Con from 4.86019e-007 to 4.87144e-007
Heightened Def Con from 4.87331e-007 +to 4.87331e-007
Heightened Def Con from 4.87331e-007 to 4.87331e-007
Heightened Def Con from 4.87331e-007 to 4.87331e-007
Heightened Def Con from 4.87331e-007 to 4.87331e-007
Heightened Def Con from 4.87331e-007 to 4.87331e-007
Heightened Def Con from 4.87331e-007 to 4.87331e-007
Heightened Def Con from 4.87331e-007 to 4.87331e-007
Heightened Def Con from 4.87331e-007 to 4.87331e-007
Heightened Def Con from 4.87331e-007 to 4.87331e-007
Heightened Def Con from 4.87331e-007 to 4.87331e-007
Heightened Def Con from 4.87331e-007 to 4.87331e-007
Heightened Def Con from 4.87331e-007 to 4.87331e-007
Heightened Def Con from 4.87331e-007 to 4.87331e-007
Heightened Def Con from 4.87331e-007 to 4.87331e-007
Heightened Def Con from 4.87331e-007 to 4.87331e-007
Heightened Def Con from 4.87331e-007 to 4.87331e-007
Heightened Def Con from 4.87331e-007 to 4.87331e-007
Heightened Def Con from 4.87331e-007 to 4.87331e-007
Heightened Def Con from 4.87331e-007 to 4.87331e-007
Heightened Def Con from 4.87331e-007 to 4.87331e-007
Heightened Def Con from 4.87331e-007 to 4.87331e-007
Heightened Def Con from 4.87331e-007 to 4.87331e-007
Heightened Def Con from 4.87331e-007 to 4.87331e-007
Heightened Def Con from 4.87331e-007 to 4.87331e-007
Heightened Def Con from 4.87331e-007 to 4.87331e-007
Heightened Def Con from 4.87331e-007 to 4.87331e-007
Heightened Def Con from 4.87331e-007 to 4.87331e-007
Heightened Def Con from 4.87331e-007 to 4.87331e-007
Heightened Def Con from 4.87331e-007 to 4.87331e-007
Heightened Def Con from 4.87331e-007 to 4.87331e-007
Heightened Def Con from 4.87331e-007 to 4.87331e-007
Heightened Def Con from 4.87331e-007 to 4.87331e-007
Heightened Def Con from 4.87331e-007 to 4.87331e-007
Heightened Def Con from 4.87331e-007 to 4.87331e-007
Heightened Def Con from 4.87331e-007 to 4.87331e-007
Heightened Def Con from 4.87331e-007 to 4.87331e-007
Heightened Def Con from 4.87331e-007 to 4.87331e-007
Heightened Def Con from 4.87331e-007 to 4.87331e-007
Heightened Def Con from 4.87331e-007 +to 4.87331e-007
Heightened Def Con from 4.87331e-007 +to 4.87331e-007
Heightened Def Con from 4.87331e-007 to 4.87331e-007
Heightened Def Con from 4.87331e-007 to 4.87331e-007
Heightened Def Con from 4.87331e-007 to 4.87331e-007
Heightened Def Con from 4.87331e-007 to 4.87331e-007
Heightened Def Con from 4.87331e-007 to 4.87331e-007
Heightened Def Con from 4.87331e-007 to 4.87331e-007
Heightened Def Con from 4.87331e-007 to 4.87331e-007
Heightened Def Con from 4.87331e-007 to 4.87331e-007
Heightened Def Con from 4.87331e-007 to 4.87331e-007
Heightened Def Con from 4.87331e-007 to 4.87331e-007
Heightened Def Con from 4.87331e-007 +to 4.87331e-007
Heightened Def Con from 4.87331e-007 to 4.87331e-007
Heightened Def Con from 4.87331e-007 to 4.87331e-007
Heightened Def Con from 4.87331e-007 to 4.87331e-007
Heightened Def Con from 4.87331e-007 to 4.87331e-007
Heightened Def Con from 4.87331e-007 to 4.87331e-007
Heightened Def Con from 4.87331e-007 to 4.87331e-007
Heightened Def Con from 4.87331e-007 to 4.87331e-007
Heightened Def Con from 4.87331e-007 to 4.87331e-007
Heightened Def Con from 4.87331e-007 to 4.87331e-007
Heightened Def Con from 4.87331e-007 to 4.87331e-007
Heightened Def Con from 4.87331e-007 to 4.87331e-007
Heightened Def Con from 4.87331e-007 to 4.87331e-007
Heightened Def Con from 4.87331e-007 ++++++++++++++++++to 4.87331e-007
Heightened Def Con from 4.87331e-007 +++++++++++++++++++++++to 4.90331e-007
Heightened Def Con from 4.90409e-007 ++++++++++++++++to 4.90409e-007
Heightened Def Con from 4.90409e-007 +++++++++++++++++++++++to 4.93409e-007
Heightened Def Con from 4.93414e-007 to 4.93414e-007
Heightened Def Con from 4.93414e-007 to 4.93414e-007
Heightened Def Con from 4.93414e-007 to 4.93414e-007
Heightened Def Con from 4.93414e-007 to 4.93414e-007
Heightened Def Con from 4.93414e-007 to 4.93414e-007
Heightened Def Con from 4.93414e-007 to 4.93414e-007
Heightened Def Con from 4.93414e-007 to 4.93414e-007
Heightened Def Con from 4.93414e-007 to 4.93414e-007
Heightened Def Con from 4.93414e-007 to 4.93414e-007
Heightened Def Con from 4.93414e-007 to 4.93414e-007
Heightened Def Con from 4.93414e-007 to 4.93414e-007
Heightened Def Con from 4.93414e-007 to 4.93415e-007
Heightened Def Con from 4.93415e-007 to 4.93415e-007
Heightened Def Con from 4.93415e-007 to 4.93415e-007
Heightened Def Con from 4.93415e-007 to 4.93415e-007
Heightened Def Con from 4.93415e-007 to 4.93415e-007
Heightened Def Con from 4.93415e-007 to 4.93415e-007
Heightened Def Con from 4.93415e-007 to 4.93415e-007
Heightened Def Con from 4.93415e-007 to 4.93415e-007
Heightened Def Con from 4.93415e-007 to 4.93415e-007
Heightened Def Con from 4.93415e-007 to 4.93415e-007
Heightened Def Con from 4.93415e-007 to 4.93415e-007
Heightened Def Con from 4.93415e-007 to 4.93415e-007
Heightened Def Con from 4.93415e-007 to 4.93415e-007
Heightened Def Con from 4.93415e-007 to 4.93416e-007
Heightened Def Con from 4.93416e-007 to 4.93416e-007
Heightened Def Con from 4.93416e-007 to 4.93416e-007
Heightened Def Con from 4.93416e-007 to 4.93416e-007
Heightened Def Con from 4.93416e-007 to 4.93416e-007
Heightened Def Con from 4.93416e-007 to 4.93416e-007
Heightened Def Con from 4.93416e-007 to 4.93416e-007
Heightened Def Con from 4.93416e-007 to 4.93416e-007
Heightened Def Con from 4.93416e-007 to 4.93416e-007
Heightened Def Con from 4.93416e-007 to 4.93418e-007
Heightened Def Con from 4.93418e-007 to 4.93419e-007
Heightened Def Con from 4.93419e-007 to 4.93419e-007
Heightened Def Con from 4.93419e-007 to 4.93419e-007
Heightened Def Con from 4.93419e-007 to 4.93419e-007
Heightened Def Con from 4.93419e-007 to 4.93419e-007
Heightened Def Con from 4.93419e-007 to 4.93419e-007
Heightened Def Con from 4.9342e-007 to 4.9342e-007
Heightened Def Con from 4.9342e-007 to 4.9342e-007
Heightened Def Con from 4.9342e-007 to 4.9342e-007
Heightened Def Con from 4.9342e-007 to 4.9342e-007
Heightened Def Con from 4.9342e-007 to 4.9342e-007
Heightened Def Con from 4.9342e-007 to 4.9342e-007
Heightened Def Con from 4.9342e-007 to 4.9342e-007
Heightened Def Con from 4.9342e-007 to 4.9342e-007
Heightened Def Con from 4.9342e-007 to 4.9342e-007
Heightened Def Con from 4.9342e-007 to 4.9342e-007
Heightened Def Con from 4.9342e-007 to 4.9342e-007
Heightened Def Con from 4.9342e-007 to 4.93421e-007
Heightened Def Con from 4.93421e-007 to 4.93421e-007
Heightened Def Con from 4.93421e-007 to 4.93421e-007
Heightened Def Con from 4.93421e-007 to 4.93421e-007
Heightened Def Con from 4.93421e-007 to 4.93421e-007
Heightened Def Con from 4.93421e-007 to 4.93421e-007
Heightened Def Con from 4.93421e-007 to 4.93421e-007
Heightened Def Con from 4.93421e-007 to 4.93421e-007
Heightened Def Con from 4.93421e-007 to 4.93421e-007
Heightened Def Con from 4.93421e-007 to 4.93421e-007
Heightened Def Con from 4.93421e-007 to 4.93421e-007
Heightened Def Con from 4.93421e-007 to 4.93421e-007
Heightened Def Con from 4.93422e-007 to 4.93422e-007
Heightened Def Con from 4.93422e-007 to 4.93422e-007
Heightened Def Con from 4.93422e-007 to 4.93422e-007
Heightened Def Con from 4.93422e-007 to 4.93422e-007
Heightened Def Con from 4.93422e-007 to 4.93422e-007
Heightened Def Con from 4.93422e-007 to 4.93422e-007
Heightened Def Con from 4.93422e-007 to 4.93422e-007
Heightened Def Con from 4.93423e-007 to 4.93423e-007
Heightened Def Con from 4.93423e-007 to 4.93423e-007
Heightened Def Con from 4.93423e-007 to 4.93423e-007
Heightened Def Con from 4.93423e-007 to 4.93423e-007
Heightened Def Con from 4.93423e-007 to 4.93423e-007
Heightened Def Con from 4.93423e-007 to 4.93423e-007
Heightened Def Con from 4.93423e-007 to 4.93424e-007
Heightened Def Con from 4.93424e-007 to 4.93424e-007
Heightened Def Con from 4.93424e-007 to 4.93424e-007
Heightened Def Con from 4.93424e-007 to 4.93424e-007
Heightened Def Con from 4.93424e-007 to 4.93424e-007
Heightened Def Con from 4.93424e-007 to 4.93424e-007
Heightened Def Con from 4.93425e-007 to 4.93425e-007
Heightened Def Con from 4.93425e-007 to 4.93425e-007
Heightened Def Con from 4.93425e-007 to 4.93425e-007
Heightened Def Con from 4.93425e-007 to 4.93425e-007
Heightened Def Con from 4.93425e-007 to 4.93425e-007
Heightened Def Con from 4.93425e-007 to 4.93425e-007
Heightened Def Con from 4.93425e-007 to 4.93425e-007
Heightened Def Con from 4.93425e-007 to 4.93425e-007
Heightened Def Con from 4.93425e-007 to 4.93426e-007
Heightened Def Con from 4.93426e-007 to 4.93426e-007
Heightened Def Con from 4.93426e-007 to 4.93426e-007
Heightened Def Con from 4.93426e-007 to 4.93426e-007
Heightened Def Con from 4.93426e-007 to 4.93426e-007
Heightened Def Con from 4.93426e-007 to 4.93426e-007
Heightened Def Con from 4.93426e-007 to 4.93426e-007
Heightened Def Con from 4.93426e-007 to 4.93426e-007
Heightened Def Con from 4.93426e-007 to 4.93426e-007
Heightened Def Con from 4.93426e-007 to 4.93426e-007
Heightened Def Con from 4.93426e-007 to 4.93426e-007
Heightened Def Con from 4.93426e-007 to 4.93426e-007
Heightened Def Con from 4.93426e-007 to 4.93427e-007
Heightened Def Con from 4.93427e-007 to 4.93427e-007
Heightened Def Con from 4.93427e-007 to 4.93427e-007
Heightened Def Con from 4.93427e-007 to 4.93427e-007
Heightened Def Con from 4.93427e-007 to 4.93427e-007
Heightened Def Con from 4.93427e-007 to 4.93427e-007
Heightened Def Con from 4.93427e-007 to 4.93427e-007
Heightened Def Con from 4.93427e-007 to 4.93427e-007
Heightened Def Con from 4.93427e-007 to 4.93427e-007
Heightened Def Con from 4.93427e-007 to 4.93427e-007
Heightened Def Con from 4.93427e-007 to 4.93427e-007
Heightened Def Con from 4.93427e-007 to 4.93427e-007
Heightened Def Con from 4.93428e-007 to 4.93428e-007
Heightened Def Con from 4.93428e-007 to 4.9343e-007
Heightened Def Con from 4.9343e-007 to 4.9343e-007
Heightened Def Con from 4.9343e-007 to 4.93431e-007
Heightened Def Con from 4.93431e-007 to 4.93431e-007
Heightened Def Con from 4.93431e-007 to 4.93431e-007
Heightened Def Con from 4.93432e-007 to 4.93432e-007
Heightened Def Con from 4.93432e-007 to 4.93432e-007
Heightened Def Con from 4.93432e-007 to 4.93432e-007
Heightened Def Con from 4.93432e-007 to 4.93432e-007
Heightened Def Con from 4.93432e-007 to 4.93432e-007
Heightened Def Con from 4.93432e-007 to 4.93433e-007
Heightened Def Con from 4.93433e-007 to 4.93433e-007
Heightened Def Con from 4.93433e-007 to 4.93433e-007
Heightened Def Con from 4.93433e-007 to 4.93433e-007
Heightened Def Con from 4.93433e-007 to 4.93433e-007
Heightened Def Con from 4.93433e-007 to 4.93433e-007
Heightened Def Con from 4.93434e-007 to 4.93434e-007
Heightened Def Con from 4.93434e-007 to 4.93434e-007
Heightened Def Con from 4.93434e-007 to 4.93434e-007
Heightened Def Con from 4.93434e-007 to 4.93434e-007
Heightened Def Con from 4.93434e-007 to 4.93434e-007
Heightened Def Con from 4.93434e-007 to 4.93435e-007
Heightened Def Con from 4.93435e-007 to 4.93435e-007
Heightened Def Con from 4.93435e-007 to 4.93435e-007
Heightened Def Con from 4.93435e-007 to 4.93435e-007
Heightened Def Con from 4.93435e-007 to 4.93435e-007
Heightened Def Con from 4.93435e-007 to 4.93435e-007
Heightened Def Con from 4.93435e-007 to 4.93437e-007
Heightened Def Con from 4.93438e-007 to 4.93438e-007
Heightened Def Con from 4.93438e-007 to 4.93438e-007
Heightened Def Con from 4.93438e-007 to 4.93438e-007
Heightened Def Con from 4.93438e-007 to 4.93438e-007
Heightened Def Con from 4.93438e-007 to 4.93438e-007
Heightened Def Con from 4.93439e-007 to 4.93439e-007
Heightened Def Con from 4.93439e-007 to 4.93439e-007
Heightened Def Con from 4.93439e-007 to 4.93439e-007
Heightened Def Con from 4.93439e-007 to 4.93439e-007
Heightened Def Con from 4.9344e-007 to 4.9344e-007
Heightened Def Con from 4.9344e-007 to 4.9344e-007
Heightened Def Con from 4.9344e-007 to 4.9344e-007
Heightened Def Con from 4.9344e-007 to 4.9344e-007
Heightened Def Con from 4.9344e-007 to 4.9344e-007
Heightened Def Con from 4.93441e-007 to 4.93443e-007
Heightened Def Con from 4.93444e-007 to 4.93459e-007
Heightened Def Con from 4.93646e-007 to 4.93646e-007
Heightened Def Con from 4.93646e-007 +to 4.93646e-007
Heightened Def Con from 4.93646e-007 ++++to 4.93646e-007
Heightened Def Con from 4.93646e-007 +to 4.93646e-007
Heightened Def Con from 4.93646e-007 ++to 4.93646e-007
Heightened Def Con from 4.93646e-007 +to 4.93646e-007
Heightened Def Con from 4.93646e-007 +to 4.93646e-007
Heightened Def Con from 4.93646e-007 ++++++++++++++++++++++to 4.93647e-007
Heightened Def Con from 4.93647e-007 +to 4.93647e-007
Heightened Def Con from 4.93647e-007 +to 4.93647e-007
Heightened Def Con from 4.93647e-007 +to 4.93647e-007
Heightened Def Con from 4.93647e-007 ++++++++++++++++++++++to 4.93647e-007
Heightened Def Con from 4.93647e-007 to 4.93647e-007
Heightened Def Con from 4.93647e-007 to 4.93647e-007
Heightened Def Con from 4.93647e-007 +to 4.93647e-007
Heightened Def Con from 4.93647e-007 +to 4.93647e-007
Heightened Def Con from 4.93647e-007 ++++++++++++++++++to 4.93647e-007
Heightened Def Con from 4.93647e-007 ++++++++++++++++++++++to 4.93647e-007
Heightened Def Con from 4.93648e-007 to 4.93648e-007
Heightened Def Con from 4.93648e-007 +to 4.93648e-007
Heightened Def Con from 4.93648e-007 ++++++++++++++++++++++to 4.93648e-007
Heightened Def Con from 4.93648e-007 to 4.93648e-007
Heightened Def Con from 4.93648e-007 to 4.93648e-007
Heightened Def Con from 4.93648e-007 to 4.93648e-007
Heightened Def Con from 4.93648e-007 +to 4.93648e-007
Heightened Def Con from 4.93648e-007 ++++++++++++++++++++++to 4.93648e-007
Heightened Def Con from 4.93648e-007 to 4.93648e-007
Heightened Def Con from 4.93648e-007 to 4.93648e-007
Heightened Def Con from 4.93648e-007 +to 4.93648e-007
Heightened Def Con from 4.93648e-007 +to 4.93648e-007
Heightened Def Con from 4.93648e-007 ++to 4.93648e-007
Heightened Def Con from 4.93648e-007 ++++++++++++++++to 4.93648e-007
Heightened Def Con from 4.93648e-007 ++++++++++++++++++++++to 4.93648e-007
Heightened Def Con from 4.93649e-007 to 4.93649e-007
Heightened Def Con from 4.93649e-007 +to 4.93649e-007
Heightened Def Con from 4.93649e-007 +to 4.93649e-007
Heightened Def Con from 4.93649e-007 ++++++++++++++++++++++to 4.93649e-007
Heightened Def Con from 4.93649e-007 to 4.93649e-007
Heightened Def Con from 4.93649e-007 ++to 4.93649e-007
Heightened Def Con from 4.93649e-007 +to 4.93649e-007
Heightened Def Con from 4.93649e-007 ++++++++++++++++++++++to 4.93649e-007
Heightened Def Con from 4.93649e-007 to 4.93649e-007
Heightened Def Con from 4.93649e-007 to 4.93649e-007
Heightened Def Con from 4.93649e-007 to 4.93649e-007
Heightened Def Con from 4.93649e-007 ++++++++++++++++++++++to 4.93649e-007
Heightened Def Con from 4.9365e-007 to 4.9365e-007
Heightened Def Con from 4.9365e-007 to 4.9365e-007
Heightened Def Con from 4.9365e-007 ++++++++++++++++++++++to 4.9365e-007
Heightened Def Con from 4.9365e-007 to 4.9365e-007
Heightened Def Con from 4.9365e-007 to 4.9365e-007
Heightened Def Con from 4.9365e-007 to 4.9365e-007
Heightened Def Con from 4.9365e-007 to 4.9365e-007
Heightened Def Con from 4.9365e-007 to 4.9365e-007
Heightened Def Con from 4.9365e-007 ++++++++++++++++++++++to 4.9365e-007
Heightened Def Con from 4.9365e-007 to 4.9365e-007
Heightened Def Con from 4.9365e-007 to 4.9365e-007
Heightened Def Con from 4.9365e-007 to 4.9365e-007
Heightened Def Con from 4.9365e-007 +to 4.9365e-007
Heightened Def Con from 4.9365e-007 +to 4.9365e-007
Heightened Def Con from 4.9365e-007 +to 4.9365e-007
Heightened Def Con from 4.9365e-007 +++++++++++++++++++++to 4.9365e-007
Heightened Def Con from 4.9365e-007 ++++++++++++++++++++++to 4.9365e-007
Heightened Def Con from 4.93651e-007 to 4.93651e-007
Heightened Def Con from 4.93651e-007 to 4.93651e-007
Heightened Def Con from 4.93651e-007 to 4.93651e-007
Heightened Def Con from 4.93651e-007 to 4.93651e-007
Heightened Def Con from 4.93651e-007 to 4.93651e-007
Heightened Def Con from 4.93651e-007 +to 4.93651e-007
Heightened Def Con from 4.93651e-007 ++++++++++++++++++++++to 4.93651e-007
Heightened Def Con from 4.93651e-007 to 4.93651e-007
Heightened Def Con from 4.93651e-007 to 4.93651e-007
Heightened Def Con from 4.93651e-007 to 4.93651e-007
Heightened Def Con from 4.93651e-007 to 4.93651e-007
Heightened Def Con from 4.93651e-007 to 4.93651e-007
Heightened Def Con from 4.93651e-007 +to 4.93651e-007
Heightened Def Con from 4.93651e-007 +to 4.93651e-007
Heightened Def Con from 4.93651e-007 ++++++++++++++++++++++to 4.93651e-007
Heightened Def Con from 4.93651e-007 to 4.93651e-007
Heightened Def Con from 4.93651e-007 to 4.93651e-007
Heightened Def Con from 4.93651e-007 to 4.93651e-007
Heightened Def Con from 4.93651e-007 +to 4.93651e-007
Heightened Def Con from 4.93651e-007 +++++++++++++++++to 4.93651e-007
Heightened Def Con from 4.93651e-007 +++++++++++++++++++++to 4.93651e-007
Heightened Def Con from 4.93651e-007 ++++++++++++++++++++++to 4.93651e-007
Heightened Def Con from 4.93652e-007 to 4.93652e-007
Heightened Def Con from 4.93652e-007 +to 4.93652e-007
Heightened Def Con from 4.93652e-007 +++++++++++++++++to 4.93652e-007
Heightened Def Con from 4.93652e-007 ++++++++++++++++++++++to 4.93652e-007
Heightened Def Con from 4.93652e-007 to 4.93652e-007
Heightened Def Con from 4.93652e-007 to 4.93652e-007
Heightened Def Con from 4.93652e-007 ++to 4.93652e-007
Heightened Def Con from 4.93652e-007 ++to 4.93652e-007
Heightened Def Con from 4.93652e-007 ++++++++++++++++++++++to 4.93652e-007
Heightened Def Con from 4.93652e-007 to 4.93652e-007
Heightened Def Con from 4.93652e-007 to 4.93652e-007
Heightened Def Con from 4.93652e-007 +to 4.93652e-007
Heightened Def Con from 4.93652e-007 +to 4.93652e-007
Heightened Def Con from 4.93652e-007 +to 4.93652e-007
Heightened Def Con from 4.93652e-007 +to 4.93652e-007
Heightened Def Con from 4.93652e-007 +to 4.93652e-007
Heightened Def Con from 4.93652e-007 +to 4.93652e-007
Heightened Def Con from 4.93652e-007 +to 4.93652e-007
Heightened Def Con from 4.93652e-007 ++++++++++++++++++++++to 4.93653e-007
Heightened Def Con from 4.93653e-007 to 4.93653e-007
Heightened Def Con from 4.93653e-007 to 4.93653e-007
Heightened Def Con from 4.93653e-007 +to 4.93653e-007
Heightened Def Con from 4.93653e-007 +to 4.93653e-007
Heightened Def Con from 4.93653e-007 +++++++++++++++++++++to 4.93653e-007
Heightened Def Con from 4.93653e-007 ++++++++++++++++++++++to 4.93653e-007
Heightened Def Con from 4.93653e-007 +to 4.93653e-007
Heightened Def Con from 4.93653e-007 +to 4.93653e-007
Heightened Def Con from 4.93653e-007 +++++++++++++++to 4.93653e-007
Heightened Def Con from 4.93653e-007 ++++++++++++++++++++++to 4.93653e-007
Heightened Def Con from 4.93653e-007 to 4.93653e-007
Heightened Def Con from 4.93653e-007 to 4.93653e-007
Heightened Def Con from 4.93653e-007 to 4.93653e-007
Heightened Def Con from 4.93653e-007 to 4.93653e-007
Heightened Def Con from 4.93653e-007 to 4.93653e-007
Heightened Def Con from 4.93653e-007 +to 4.93653e-007
Heightened Def Con from 4.93653e-007 +to 4.93653e-007
Heightened Def Con from 4.93653e-007 ++to 4.93653e-007
Heightened Def Con from 4.93653e-007 ++++++++++++++++++++++to 4.93654e-007
Heightened Def Con from 4.93654e-007 to 4.93654e-007
Heightened Def Con from 4.93654e-007 to 4.93654e-007
Heightened Def Con from 4.93654e-007 to 4.93654e-007
Heightened Def Con from 4.93654e-007 to 4.93654e-007
Heightened Def Con from 4.93654e-007 +to 4.93654e-007
Heightened Def Con from 4.93654e-007 +to 4.93654e-007
Heightened Def Con from 4.93654e-007 +to 4.93654e-007
Heightened Def Con from 4.93654e-007 +to 4.93654e-007
Heightened Def Con from 4.93654e-007 ++++++++++++++++++to 4.93654e-007
Heightened Def Con from 4.93654e-007 ++++++++++++++++++++++to 4.93654e-007
Heightened Def Con from 4.93654e-007 to 4.93654e-007
Heightened Def Con from 4.93654e-007 +to 4.93654e-007
Heightened Def Con from 4.93654e-007 +to 4.93654e-007
Heightened Def Con from 4.93654e-007 +to 4.93654e-007
Heightened Def Con from 4.93654e-007 +to 4.93654e-007
Heightened Def Con from 4.93654e-007 +to 4.93654e-007
Heightened Def Con from 4.93654e-007 +to 4.93654e-007
Heightened Def Con from 4.93654e-007 +to 4.93654e-007
Heightened Def Con from 4.93654e-007 ++++++++++++++++++++++to 4.93654e-007
Heightened Def Con from 4.93654e-007 to 4.93654e-007
Heightened Def Con from 4.93654e-007 to 4.93654e-007
Heightened Def Con from 4.93654e-007 to 4.93654e-007
Heightened Def Con from 4.93654e-007 to 4.93654e-007
Heightened Def Con from 4.93654e-007 to 4.93654e-007
Heightened Def Con from 4.93654e-007 to 4.93654e-007
Heightened Def Con from 4.93654e-007 +++++++++++++++++++++to 4.93654e-007
Heightened Def Con from 4.93654e-007 ++++++++++++++++++++++to 4.93655e-007
Heightened Def Con from 4.93655e-007 to 4.93655e-007
Heightened Def Con from 4.93655e-007 +to 4.93655e-007
Heightened Def Con from 4.93655e-007 +to 4.93655e-007
Heightened Def Con from 4.93655e-007 +to 4.93655e-007
Heightened Def Con from 4.93655e-007 +to 4.93655e-007
Heightened Def Con from 4.93655e-007 +to 4.93655e-007
Heightened Def Con from 4.93655e-007 ++++++++++++++++++++++to 4.93655e-007
Heightened Def Con from 4.93655e-007 to 4.93655e-007
Heightened Def Con from 4.93655e-007 to 4.93655e-007
Heightened Def Con from 4.93655e-007 +++++++++++++++++++++to 4.93655e-007
Heightened Def Con from 4.93655e-007 ++++++++++++++++++++++to 4.93655e-007
Heightened Def Con from 4.93655e-007 to 4.93655e-007
Heightened Def Con from 4.93655e-007 to 4.93655e-007
Heightened Def Con from 4.93655e-007 +to 4.93655e-007
Heightened Def Con from 4.93655e-007 +to 4.93655e-007
Heightened Def Con from 4.93655e-007 +to 4.93655e-007
Heightened Def Con from 4.93655e-007 ++++++++++++++++++++++to 4.93656e-007
Heightened Def Con from 4.93656e-007 to 4.93656e-007
Heightened Def Con from 4.93656e-007 to 4.93656e-007
Heightened Def Con from 4.93656e-007 +to 4.93656e-007
Heightened Def Con from 4.93656e-007 +to 4.93656e-007
Heightened Def Con from 4.93656e-007 +to 4.93656e-007
Heightened Def Con from 4.93656e-007 +to 4.93656e-007
Heightened Def Con from 4.93656e-007 +to 4.93656e-007
Heightened Def Con from 4.93656e-007 +to 4.93656e-007
Heightened Def Con from 4.93656e-007 +to 4.93656e-007
Heightened Def Con from 4.93656e-007 ++++++++++++++++++++++to 4.93656e-007
Heightened Def Con from 4.93656e-007 to 4.93656e-007
Heightened Def Con from 4.93656e-007 to 4.93656e-007
Heightened Def Con from 4.93656e-007 +to 4.93656e-007
Heightened Def Con from 4.93656e-007 +to 4.93656e-007
Heightened Def Con from 4.93656e-007 +to 4.93656e-007
Heightened Def Con from 4.93656e-007 ++++++++++++++++++++++to 4.93656e-007
Heightened Def Con from 4.93656e-007 to 4.93656e-007
Heightened Def Con from 4.93656e-007 to 4.93656e-007
Heightened Def Con from 4.93656e-007 to 4.93656e-007
Heightened Def Con from 4.93656e-007 +to 4.93656e-007
Heightened Def Con from 4.93656e-007 +to 4.93656e-007
Heightened Def Con from 4.93656e-007 +to 4.93656e-007
Heightened Def Con from 4.93656e-007 +to 4.93656e-007
Heightened Def Con from 4.93656e-007 +to 4.93656e-007
Heightened Def Con from 4.93656e-007 ++++++++++++++++++++++to 4.93657e-007
Heightened Def Con from 4.93657e-007 +to 4.93657e-007
Heightened Def Con from 4.93657e-007 +to 4.93657e-007
Heightened Def Con from 4.93657e-007 +to 4.93657e-007
Heightened Def Con from 4.93657e-007 +to 4.93657e-007
Heightened Def Con from 4.93657e-007 +to 4.93657e-007
Heightened Def Con from 4.93657e-007 +to 4.93657e-007
Heightened Def Con from 4.93657e-007 +to 4.93657e-007
Heightened Def Con from 4.93657e-007 ++++++++++++++++++to 4.93657e-007
Heightened Def Con from 4.93657e-007 ++++++++++++++++++++++to 4.93657e-007
Heightened Def Con from 4.93657e-007 to 4.93657e-007
Heightened Def Con from 4.93657e-007 to 4.93657e-007
Heightened Def Con from 4.93657e-007 +to 4.93657e-007
Heightened Def Con from 4.93657e-007 +to 4.93657e-007
Heightened Def Con from 4.93657e-007 ++++++++++++++++++++++to 4.93657e-007
Heightened Def Con from 4.93657e-007 to 4.93657e-007
Heightened Def Con from 4.93657e-007 to 4.93657e-007
Heightened Def Con from 4.93657e-007 to 4.93657e-007
Heightened Def Con from 4.93657e-007 to 4.93657e-007
Heightened Def Con from 4.93657e-007 to 4.93657e-007
Heightened Def Con from 4.93657e-007 ++++++++++++++++++++++to 4.93658e-007
Heightened Def Con from 4.93658e-007 to 4.93658e-007
Heightened Def Con from 4.93658e-007 +to 4.93658e-007
Heightened Def Con from 4.93658e-007 +to 4.93658e-007
Heightened Def Con from 4.93658e-007 +to 4.93658e-007
Heightened Def Con from 4.93658e-007 +to 4.93658e-007
Heightened Def Con from 4.93658e-007 ++to 4.93658e-007
Heightened Def Con from 4.93658e-007 +++++++++++++++++++to 4.93658e-007
Heightened Def Con from 4.93658e-007 ++++++++++++++++++++++to 4.93658e-007
Heightened Def Con from 4.93658e-007 to 4.93658e-007
Heightened Def Con from 4.93658e-007 to 4.93658e-007
Heightened Def Con from 4.93658e-007 to 4.93658e-007
Heightened Def Con from 4.93658e-007 to 4.93658e-007
Heightened Def Con from 4.93658e-007 to 4.93658e-007
Heightened Def Con from 4.93658e-007 to 4.93658e-007
Heightened Def Con from 4.93658e-007 to 4.93658e-007
Heightened Def Con from 4.93658e-007 +to 4.93658e-007
Heightened Def Con from 4.93658e-007 +to 4.93658e-007
Heightened Def Con from 4.93658e-007 +to 4.93658e-007
Heightened Def Con from 4.93658e-007 +to 4.93658e-007
Heightened Def Con from 4.93658e-007 +to 4.93658e-007
Heightened Def Con from 4.93658e-007 +to 4.93658e-007
Heightened Def Con from 4.93658e-007 ++++++++++++++++++to 4.93658e-007
Heightened Def Con from 4.93658e-007 ++++++++++++++++++++++to 4.93658e-007
Heightened Def Con from 4.93658e-007 to 4.93658e-007
Heightened Def Con from 4.93658e-007 ++++++++++++++++++++++to 4.93659e-007
Heightened Def Con from 4.93659e-007 to 4.93659e-007
Heightened Def Con from 4.93659e-007 to 4.93659e-007
Heightened Def Con from 4.93659e-007 to 4.93659e-007
Heightened Def Con from 4.93659e-007 +to 4.93659e-007
Heightened Def Con from 4.93659e-007 +to 4.93659e-007
Heightened Def Con from 4.93659e-007 +to 4.93659e-007
Heightened Def Con from 4.93659e-007 +to 4.93659e-007
Heightened Def Con from 4.93659e-007 ++++++++++++++++++++++to 4.93659e-007
Heightened Def Con from 4.93659e-007 ++++++++++++++++++++++to 4.93659e-007
Heightened Def Con from 4.93659e-007 to 4.93659e-007
Heightened Def Con from 4.93659e-007 to 4.93659e-007
Heightened Def Con from 4.93659e-007 to 4.93659e-007
Heightened Def Con from 4.93659e-007 to 4.93659e-007
Heightened Def Con from 4.93659e-007 +to 4.93659e-007
Heightened Def Con from 4.93659e-007 +to 4.93659e-007
Heightened Def Con from 4.93659e-007 +to 4.93659e-007
Heightened Def Con from 4.93659e-007 +to 4.93659e-007
Heightened Def Con from 4.93659e-007 ++++++++++++++++++++++to 4.9366e-007
Heightened Def Con from 4.9366e-007 to 4.9366e-007
Heightened Def Con from 4.9366e-007 to 4.9366e-007
Heightened Def Con from 4.9366e-007 to 4.9366e-007
Heightened Def Con from 4.9366e-007 +to 4.9366e-007
Heightened Def Con from 4.9366e-007 +to 4.9366e-007
Heightened Def Con from 4.9366e-007 ++++++++++++++++++++++to 4.9366e-007
Heightened Def Con from 4.9366e-007 to 4.9366e-007
Heightened Def Con from 4.9366e-007 to 4.9366e-007
Heightened Def Con from 4.9366e-007 to 4.9366e-007
Heightened Def Con from 4.9366e-007 to 4.9366e-007
Heightened Def Con from 4.9366e-007 to 4.9366e-007
Heightened Def Con from 4.9366e-007 to 4.9366e-007
Heightened Def Con from 4.9366e-007 to 4.9366e-007
Heightened Def Con from 4.9366e-007 to 4.9366e-007
Heightened Def Con from 4.9366e-007 +++++++++++++to 4.9366e-007
Heightened Def Con from 4.9366e-007 ++++++++++++++++++++++to 4.9366e-007
Heightened Def Con from 4.9366e-007 to 4.9366e-007
Heightened Def Con from 4.9366e-007 to 4.9366e-007
Heightened Def Con from 4.9366e-007 to 4.9366e-007
Heightened Def Con from 4.9366e-007 to 4.9366e-007
Heightened Def Con from 4.9366e-007 to 4.9366e-007
Heightened Def Con from 4.9366e-007 +to 4.9366e-007
Heightened Def Con from 4.9366e-007 +to 4.9366e-007
Heightened Def Con from 4.9366e-007 +to 4.9366e-007
Heightened Def Con from 4.9366e-007 +to 4.9366e-007
Heightened Def Con from 4.9366e-007 +++++++++++++++++++to 4.9366e-007
Heightened Def Con from 4.9366e-007 ++++++++++++++++++++++to 4.93661e-007
Heightened Def Con from 4.93661e-007 to 4.93661e-007
Heightened Def Con from 4.93661e-007 +to 4.93661e-007
Heightened Def Con from 4.93661e-007 ++++++++++++++++++to 4.93661e-007
Heightened Def Con from 4.93661e-007 ++++++++++++++++++++++to 4.93661e-007
Heightened Def Con from 4.93661e-007 to 4.93661e-007
Heightened Def Con from 4.93661e-007 to 4.93661e-007
Heightened Def Con from 4.93661e-007 to 4.93661e-007
Heightened Def Con from 4.93661e-007 to 4.93661e-007
Heightened Def Con from 4.93661e-007 ++++++++++++++++++++++to 4.93661e-007
Heightened Def Con from 4.93662e-007 to 4.93662e-007
Heightened Def Con from 4.93662e-007 to 4.93662e-007
Heightened Def Con from 4.93662e-007 to 4.93662e-007
Heightened Def Con from 4.93662e-007 +to 4.93662e-007
Heightened Def Con from 4.93662e-007 +to 4.93662e-007
Heightened Def Con from 4.93662e-007 +to 4.93662e-007
Heightened Def Con from 4.93662e-007 +to 4.93662e-007
Heightened Def Con from 4.93662e-007 +to 4.93662e-007
Heightened Def Con from 4.93662e-007 +to 4.93662e-007
Heightened Def Con from 4.93662e-007 ++++++++++++++++++++++to 4.93662e-007
Heightened Def Con from 4.93662e-007 +to 4.93662e-007
Heightened Def Con from 4.93662e-007 +to 4.93662e-007
Heightened Def Con from 4.93662e-007 +to 4.93662e-007
Heightened Def Con from 4.93662e-007 ++++++++++++++++to 4.93662e-007
Heightened Def Con from 4.93662e-007 ++++++++++++++++++++++to 4.93662e-007
Heightened Def Con from 4.93662e-007 ++++++++++++++++++++++to 4.93662e-007
Heightened Def Con from 4.93663e-007 to 4.93663e-007
Heightened Def Con from 4.93663e-007 +to 4.93663e-007
Heightened Def Con from 4.93663e-007 +to 4.93663e-007
Heightened Def Con from 4.93663e-007 ++to 4.93663e-007
Heightened Def Con from 4.93663e-007 +to 4.93663e-007
Heightened Def Con from 4.93663e-007 ++++++++++++++++++to 4.93663e-007
Heightened Def Con from 4.93663e-007 ++++++++++++++++++++++to 4.93663e-007
Heightened Def Con from 4.93663e-007 +to 4.93663e-007
Heightened Def Con from 4.93663e-007 ++++++++++++++++++++++to 4.93663e-007
Heightened Def Con from 4.93663e-007 +to 4.93663e-007
Heightened Def Con from 4.93663e-007 +to 4.93663e-007
Heightened Def Con from 4.93663e-007 +to 4.93663e-007
Heightened Def Con from 4.93663e-007 +to 4.93663e-007
Heightened Def Con from 4.93663e-007 ++++++++++++++++++++++to 4.93664e-007
Heightened Def Con from 4.93664e-007 ++to 4.93664e-007
Heightened Def Con from 4.93664e-007 ++++++++++++++++++++++to 4.93664e-007
Heightened Def Con from 4.93664e-007 to 4.93664e-007
Heightened Def Con from 4.93664e-007 to 4.93664e-007
Heightened Def Con from 4.93664e-007 to 4.93664e-007
Heightened Def Con from 4.93664e-007 to 4.93664e-007
Heightened Def Con from 4.93664e-007 +to 4.93664e-007
Heightened Def Con from 4.93664e-007 +to 4.93664e-007
Heightened Def Con from 4.93664e-007 +to 4.93664e-007
Heightened Def Con from 4.93664e-007 ++++++++++++++++++++++to 4.93664e-007
Heightened Def Con from 4.93664e-007 to 4.93664e-007
Heightened Def Con from 4.93664e-007 to 4.93664e-007
Heightened Def Con from 4.93664e-007 to 4.93664e-007
Heightened Def Con from 4.93664e-007 ++++++++++++++++++++++to 4.93665e-007
Heightened Def Con from 4.93665e-007 to 4.93665e-007
Heightened Def Con from 4.93665e-007 to 4.93665e-007
Heightened Def Con from 4.93665e-007 +to 4.93665e-007
Heightened Def Con from 4.93665e-007 +to 4.93665e-007
Heightened Def Con from 4.93665e-007 +to 4.93665e-007
Heightened Def Con from 4.93665e-007 +to 4.93665e-007
Heightened Def Con from 4.93665e-007 +to 4.93665e-007
Heightened Def Con from 4.93665e-007 +++++++++++++++++++to 4.93665e-007
Heightened Def Con from 4.93665e-007 ++++++++++++++++++++++to 4.93665e-007
Heightened Def Con from 4.93665e-007 to 4.93665e-007
Heightened Def Con from 4.93665e-007 to 4.93665e-007
Heightened Def Con from 4.93665e-007 +to 4.93665e-007
Heightened Def Con from 4.93665e-007 ++++++++++++++++++++++to 4.93665e-007
Heightened Def Con from 4.93665e-007 to 4.93665e-007
Heightened Def Con from 4.93665e-007 +to 4.93665e-007
Heightened Def Con from 4.93665e-007 +to 4.93665e-007
Heightened Def Con from 4.93665e-007 +++++++++++++++++to 4.93665e-007
Heightened Def Con from 4.93665e-007 ++++++++++++++++++++++to 4.93666e-007
Heightened Def Con from 4.93666e-007 to 4.93666e-007
Heightened Def Con from 4.93666e-007 to 4.93666e-007
Heightened Def Con from 4.93666e-007 to 4.93666e-007
Heightened Def Con from 4.93666e-007 ++++++++++++++++++++++to 4.93666e-007
Heightened Def Con from 4.93667e-007 to 4.93667e-007
Heightened Def Con from 4.93667e-007 to 4.93667e-007
Heightened Def Con from 4.93667e-007 to 4.93667e-007
Heightened Def Con from 4.93667e-007 +to 4.93667e-007
Heightened Def Con from 4.93667e-007 +to 4.93667e-007
Heightened Def Con from 4.93667e-007 +to 4.93667e-007
Heightened Def Con from 4.93667e-007 +to 4.93667e-007
Heightened Def Con from 4.93667e-007 +to 4.93667e-007
Heightened Def Con from 4.93667e-007 +++++++++++++++++to 4.93667e-007
Heightened Def Con from 4.93667e-007 ++++++++++++++++++++++to 4.93667e-007
Heightened Def Con from 4.93668e-007 +++++++++++++++++++to 4.93668e-007
Heightened Def Con from 4.93668e-007 ++++++++++++++++++++++to 4.93668e-007
Heightened Def Con from 4.93668e-007 ++to 4.93668e-007
Heightened Def Con from 4.93668e-007 +to 4.93668e-007
Heightened Def Con from 4.93668e-007 +to 4.93668e-007
Heightened Def Con from 4.93668e-007 +to 4.93668e-007
Heightened Def Con from 4.93668e-007 +++++++++++++to 4.93668e-007
Heightened Def Con from 4.93668e-007 ++++++++++++++++++++++to 4.93669e-007
Heightened Def Con from 4.93669e-007 to 4.93669e-007
Heightened Def Con from 4.93669e-007 to 4.93669e-007
Heightened Def Con from 4.93669e-007 +to 4.93669e-007
Heightened Def Con from 4.93669e-007 ++++++++++++++++to 4.93669e-007
Heightened Def Con from 4.93669e-007 ++++++++++++++++++++++to 4.93669e-007
Heightened Def Con from 4.9367e-007 +++++to 4.9367e-007
Heightened Def Con from 4.9367e-007 ++to 4.9367e-007
Heightened Def Con from 4.9367e-007 +to 4.9367e-007
Heightened Def Con from 4.9367e-007 ++to 4.9367e-007
Heightened Def Con from 4.9367e-007 ++++++++++++++++++to 4.9367e-007
Heightened Def Con from 4.9367e-007 ++++++++++++++++++++++to 4.9367e-007
Heightened Def Con from 4.9367e-007 to 4.9367e-007
Heightened Def Con from 4.9367e-007 to 4.9367e-007
Heightened Def Con from 4.9367e-007 +to 4.9367e-007
Heightened Def Con from 4.9367e-007 +to 4.9367e-007
Heightened Def Con from 4.9367e-007 +to 4.9367e-007
Heightened Def Con from 4.9367e-007 +to 4.9367e-007
Heightened Def Con from 4.9367e-007 ++++++++++++++++++++++to 4.9367e-007
Heightened Def Con from 4.9367e-007 to 4.9367e-007
Heightened Def Con from 4.9367e-007 to 4.9367e-007
Heightened Def Con from 4.9367e-007 +to 4.9367e-007
Heightened Def Con from 4.9367e-007 +to 4.9367e-007
Heightened Def Con from 4.9367e-007 ++++++++++++++++++++++to 4.93671e-007
Heightened Def Con from 4.93671e-007 to 4.93671e-007
Heightened Def Con from 4.93671e-007 to 4.93671e-007
Heightened Def Con from 4.93671e-007 to 4.93671e-007
Heightened Def Con from 4.93671e-007 to 4.93671e-007
Heightened Def Con from 4.93671e-007 to 4.93671e-007
Heightened Def Con from 4.93671e-007 to 4.93671e-007
Heightened Def Con from 4.93671e-007 ++++++++++++++++++++++to 4.93671e-007
Heightened Def Con from 4.93671e-007 to 4.93671e-007
Heightened Def Con from 4.93671e-007 to 4.93671e-007
Heightened Def Con from 4.93671e-007 to 4.93671e-007
Heightened Def Con from 4.93671e-007 to 4.93671e-007
Heightened Def Con from 4.93671e-007 to 4.93671e-007
Heightened Def Con from 4.93671e-007 +to 4.93671e-007
Heightened Def Con from 4.93671e-007 +++++++++++++++++to 4.93671e-007
Heightened Def Con from 4.93671e-007 ++++++++++++++++++++++to 4.93671e-007
Heightened Def Con from 4.93672e-007 to 4.93672e-007
Heightened Def Con from 4.93672e-007 ++++++++++++++++++++++to 4.93672e-007
Heightened Def Con from 4.93672e-007 to 4.93672e-007
Heightened Def Con from 4.93672e-007 to 4.93672e-007
Heightened Def Con from 4.93672e-007 to 4.93672e-007
Heightened Def Con from 4.93672e-007 to 4.93672e-007
Heightened Def Con from 4.93672e-007 +to 4.93672e-007
Heightened Def Con from 4.93672e-007 +to 4.93672e-007
Heightened Def Con from 4.93672e-007 +to 4.93672e-007
Heightened Def Con from 4.93672e-007 +to 4.93672e-007
Heightened Def Con from 4.93672e-007 +to 4.93672e-007
Heightened Def Con from 4.93672e-007 +to 4.93672e-007
Heightened Def Con from 4.93672e-007 ++++++++++++++++++++++to 4.93672e-007
Heightened Def Con from 4.93672e-007 to 4.93672e-007
Heightened Def Con from 4.93672e-007 to 4.93672e-007
Heightened Def Con from 4.93672e-007 to 4.93672e-007
Heightened Def Con from 4.93672e-007 to 4.93672e-007
Heightened Def Con from 4.93672e-007 to 4.93672e-007
Heightened Def Con from 4.93672e-007 to 4.93672e-007
Heightened Def Con from 4.93672e-007 +to 4.93672e-007
Heightened Def Con from 4.93672e-007 +to 4.93672e-007
Heightened Def Con from 4.93672e-007 +to 4.93672e-007
Heightened Def Con from 4.93672e-007 +to 4.93672e-007
Heightened Def Con from 4.93672e-007 +++++++++++++++++to 4.93672e-007
Heightened Def Con from 4.93672e-007 ++++++++++++++++++++++to 4.93673e-007
Heightened Def Con from 4.93673e-007 to 4.93673e-007
Heightened Def Con from 4.93673e-007 to 4.93673e-007
Heightened Def Con from 4.93673e-007 to 4.93673e-007
Heightened Def Con from 4.93673e-007 to 4.93673e-007
Heightened Def Con from 4.93673e-007 +to 4.93673e-007
Heightened Def Con from 4.93673e-007 ++++++++++++++++to 4.93673e-007
Heightened Def Con from 4.93673e-007 ++++++++++++++++++++++to 4.93673e-007
Heightened Def Con from 4.93673e-007 to 4.93673e-007
Heightened Def Con from 4.93673e-007 to 4.93673e-007
Heightened Def Con from 4.93673e-007 to 4.93673e-007
Heightened Def Con from 4.93673e-007 +to 4.93673e-007
Heightened Def Con from 4.93673e-007 +to 4.93673e-007
Heightened Def Con from 4.93673e-007 +to 4.93673e-007
Heightened Def Con from 4.93673e-007 ++++++++++++++++++++++to 4.93673e-007
Heightened Def Con from 4.93673e-007 to 4.93673e-007
Heightened Def Con from 4.93673e-007 to 4.93673e-007
Heightened Def Con from 4.93673e-007 to 4.93673e-007
Heightened Def Con from 4.93673e-007 +to 4.93673e-007
Heightened Def Con from 4.93673e-007 +to 4.93673e-007
Heightened Def Con from 4.93673e-007 ++++++++++++++++++to 4.93673e-007
Heightened Def Con from 4.93673e-007 ++++++++++++++++++++++to 4.93674e-007
Heightened Def Con from 4.93674e-007 to 4.93674e-007
Heightened Def Con from 4.93674e-007 to 4.93674e-007
Heightened Def Con from 4.93674e-007 +to 4.93674e-007
Heightened Def Con from 4.93674e-007 +to 4.93674e-007
Heightened Def Con from 4.93674e-007 +to 4.93674e-007
Heightened Def Con from 4.93674e-007 +to 4.93674e-007
Heightened Def Con from 4.93674e-007 +to 4.93674e-007
Heightened Def Con from 4.93674e-007 ++++++++++++++++++++++to 4.93674e-007
Heightened Def Con from 4.93674e-007 to 4.93674e-007
Heightened Def Con from 4.93674e-007 to 4.93674e-007
Heightened Def Con from 4.93674e-007 +to 4.93674e-007
Heightened Def Con from 4.93674e-007 +to 4.93674e-007
Heightened Def Con from 4.93674e-007 +to 4.93674e-007
Heightened Def Con from 4.93674e-007 ++++++++++++++++++++++to 4.93674e-007
Heightened Def Con from 4.93674e-007 to 4.93674e-007
Heightened Def Con from 4.93674e-007 to 4.93674e-007
Heightened Def Con from 4.93674e-007 to 4.93674e-007
Heightened Def Con from 4.93674e-007 to 4.93674e-007
Heightened Def Con from 4.93674e-007 +to 4.93674e-007
Heightened Def Con from 4.93674e-007 +to 4.93674e-007
Heightened Def Con from 4.93674e-007 ++++++++++++++++++++++to 4.93675e-007
Heightened Def Con from 4.93675e-007 to 4.93675e-007
Heightened Def Con from 4.93675e-007 to 4.93675e-007
Heightened Def Con from 4.93675e-007 to 4.93675e-007
Heightened Def Con from 4.93675e-007 +to 4.93675e-007
Heightened Def Con from 4.93675e-007 +++++++++++++++++++to 4.93675e-007
Heightened Def Con from 4.93675e-007 ++++++++++++++++++++++to 4.93675e-007
Heightened Def Con from 4.93675e-007 to 4.93675e-007
Heightened Def Con from 4.93675e-007 +to 4.93675e-007
Heightened Def Con from 4.93675e-007 +to 4.93675e-007
Heightened Def Con from 4.93675e-007 +to 4.93675e-007
Heightened Def Con from 4.93675e-007 ++++++++++++++++++++++to 4.93675e-007
Heightened Def Con from 4.93675e-007 to 4.93675e-007
Heightened Def Con from 4.93675e-007 +++++++++++++++++to 4.93675e-007
Heightened Def Con from 4.93675e-007 ++++++++++++++++++++++to 4.93676e-007
Heightened Def Con from 4.93676e-007 to 4.93676e-007
Heightened Def Con from 4.93676e-007 to 4.93676e-007
Heightened Def Con from 4.93676e-007 +to 4.93676e-007
Heightened Def Con from 4.93676e-007 ++to 4.93676e-007
Heightened Def Con from 4.93676e-007 +to 4.93676e-007
Heightened Def Con from 4.93676e-007 +to 4.93676e-007
Heightened Def Con from 4.93676e-007 +to 4.93676e-007
Heightened Def Con from 4.93676e-007 +to 4.93676e-007
Heightened Def Con from 4.93676e-007 ++++++++++++++++++++++to 4.93676e-007
Heightened Def Con from 4.93676e-007 to 4.93676e-007
Heightened Def Con from 4.93676e-007 to 4.93676e-007
Heightened Def Con from 4.93676e-007 +to 4.93676e-007
Heightened Def Con from 4.93676e-007 +to 4.93676e-007
Heightened Def Con from 4.93676e-007 +to 4.93676e-007
Heightened Def Con from 4.93676e-007 ++++++++++++++++++++++to 4.93676e-007
Heightened Def Con from 4.93676e-007 to 4.93676e-007
Heightened Def Con from 4.93676e-007 to 4.93676e-007
Heightened Def Con from 4.93676e-007 ++++++++++++++++++++++to 4.93677e-007
Heightened Def Con from 4.93677e-007 to 4.93677e-007
Heightened Def Con from 4.93677e-007 ++to 4.93677e-007
Heightened Def Con from 4.93677e-007 +to 4.93677e-007
Heightened Def Con from 4.93677e-007 +to 4.93677e-007
Heightened Def Con from 4.93677e-007 +to 4.93677e-007
Heightened Def Con from 4.93677e-007 +to 4.93677e-007
Heightened Def Con from 4.93677e-007 +to 4.93677e-007
Heightened Def Con from 4.93677e-007 ++++++++++++++++++++++to 4.93677e-007
Heightened Def Con from 4.93677e-007 to 4.93677e-007
Heightened Def Con from 4.93677e-007 +to 4.93677e-007
Heightened Def Con from 4.93677e-007 +to 4.93677e-007
Heightened Def Con from 4.93677e-007 ++++++++++++++++++to 4.93677e-007
Heightened Def Con from 4.93677e-007 ++++++++++++++++++++to 4.93677e-007
Heightened Def Con from 4.93677e-007 ++++++++++++++++++++++to 4.93677e-007
Heightened Def Con from 4.93678e-007 +to 4.93678e-007
Heightened Def Con from 4.93678e-007 +to 4.93678e-007
Heightened Def Con from 4.93678e-007 +to 4.93678e-007
Heightened Def Con from 4.93678e-007 +to 4.93678e-007
Heightened Def Con from 4.93678e-007 +to 4.93678e-007
Heightened Def Con from 4.93678e-007 +to 4.93678e-007
Heightened Def Con from 4.93678e-007 ++++++to 4.93678e-007
Heightened Def Con from 4.93678e-007 ++++++++++++++++++++to 4.93678e-007
Heightened Def Con from 4.93678e-007 +++++++++++++++++++to 4.93678e-007
Heightened Def Con from 4.93678e-007 ++++++++++++++++++++++to 4.93678e-007
Heightened Def Con from 4.93678e-007 +to 4.93678e-007
Heightened Def Con from 4.93678e-007 +to 4.93678e-007
Heightened Def Con from 4.93678e-007 +to 4.93678e-007
Heightened Def Con from 4.93678e-007 ++++++++++++++++++to 4.93678e-007
Heightened Def Con from 4.93678e-007 ++++++++++++++++++++++to 4.93678e-007
Heightened Def Con from 4.93678e-007 +to 4.93678e-007
Heightened Def Con from 4.93678e-007 ++++++++++++++++++to 4.93678e-007
Heightened Def Con from 4.93678e-007 +++++++++++++++++++to 4.93678e-007
Heightened Def Con from 4.93678e-007 ++++++++++++++++++++++to 4.93679e-007
Heightened Def Con from 4.93679e-007 to 4.93679e-007
Heightened Def Con from 4.93679e-007 to 4.93679e-007
Heightened Def Con from 4.93679e-007 to 4.93679e-007
Heightened Def Con from 4.93679e-007 +to 4.93679e-007
Heightened Def Con from 4.93679e-007 +to 4.93679e-007
Heightened Def Con from 4.93679e-007 +to 4.93679e-007
Heightened Def Con from 4.93679e-007 +++++++++++++++++++to 4.93679e-007
Heightened Def Con from 4.93679e-007 ++++++++++++++++++++++to 4.93679e-007
Heightened Def Con from 4.93679e-007 to 4.93679e-007
Heightened Def Con from 4.93679e-007 to 4.93679e-007
Heightened Def Con from 4.93679e-007 to 4.93679e-007
Heightened Def Con from 4.93679e-007 +to 4.93679e-007
Heightened Def Con from 4.93679e-007 +to 4.93679e-007
Heightened Def Con from 4.93679e-007 ++++++++++++++++++to 4.93679e-007
Heightened Def Con from 4.93679e-007 ++++++++++++++++++++++to 4.93681e-007
Heightened Def Con from 4.93682e-007 to 4.93682e-007
Heightened Def Con from 4.93682e-007 to 4.93682e-007
Heightened Def Con from 4.93682e-007 to 4.93682e-007
Heightened Def Con from 4.93682e-007 to 4.93682e-007
Heightened Def Con from 4.93682e-007 +to 4.93682e-007
Heightened Def Con from 4.93682e-007 +to 4.93682e-007
Heightened Def Con from 4.93682e-007 ++++++++++++++++++++++to 4.93684e-007
Heightened Def Con from 4.93684e-007 to 4.93684e-007
Heightened Def Con from 4.93684e-007 to 4.93684e-007
Heightened Def Con from 4.93684e-007 to 4.93684e-007
Heightened Def Con from 4.93684e-007 to 4.93684e-007
Heightened Def Con from 4.93684e-007 to 4.93684e-007
Heightened Def Con from 4.93684e-007 to 4.93684e-007
Heightened Def Con from 4.93684e-007 +to 4.93684e-007
Heightened Def Con from 4.93684e-007 ++++++++++++++++++++++to 4.93685e-007
Heightened Def Con from 4.93685e-007 to 4.93685e-007
Heightened Def Con from 4.93685e-007 to 4.93685e-007
Heightened Def Con from 4.93685e-007 +to 4.93685e-007
Heightened Def Con from 4.93685e-007 ++++++++++++++++++++++to 4.93685e-007
Heightened Def Con from 4.93685e-007 to 4.93685e-007
Heightened Def Con from 4.93685e-007 to 4.93685e-007
Heightened Def Con from 4.93685e-007 to 4.93685e-007
Heightened Def Con from 4.93685e-007 to 4.93685e-007
Heightened Def Con from 4.93685e-007 +to 4.93685e-007
Heightened Def Con from 4.93685e-007 +to 4.93685e-007
Heightened Def Con from 4.93685e-007 +to 4.93685e-007
Heightened Def Con from 4.93685e-007 +to 4.93685e-007
Heightened Def Con from 4.93685e-007 ++++++++++++++++++++++to 4.93685e-007
Heightened Def Con from 4.93685e-007 to 4.93685e-007
Heightened Def Con from 4.93685e-007 to 4.93685e-007
Heightened Def Con from 4.93685e-007 +to 4.93685e-007
Heightened Def Con from 4.93685e-007 +++++++++++++++++to 4.93685e-007
Heightened Def Con from 4.93685e-007 +++++++++++++++++++to 4.93685e-007
Heightened Def Con from 4.93685e-007 ++++++++++++++++++++++to 4.93686e-007
Heightened Def Con from 4.93686e-007 to 4.93686e-007
Heightened Def Con from 4.93686e-007 to 4.93686e-007
Heightened Def Con from 4.93686e-007 to 4.93686e-007
Heightened Def Con from 4.93686e-007 to 4.93686e-007
Heightened Def Con from 4.93686e-007 to 4.93686e-007
Heightened Def Con from 4.93686e-007 +to 4.93686e-007
Heightened Def Con from 4.93686e-007 ++++++++++++++++++++++to 4.93686e-007
Heightened Def Con from 4.93687e-007 to 4.93687e-007
Heightened Def Con from 4.93687e-007 to 4.93687e-007
Heightened Def Con from 4.93687e-007 +to 4.93687e-007
Heightened Def Con from 4.93687e-007 +to 4.93687e-007
Heightened Def Con from 4.93687e-007 +to 4.93687e-007
Heightened Def Con from 4.93687e-007 +to 4.93687e-007
Heightened Def Con from 4.93687e-007 +to 4.93687e-007
Heightened Def Con from 4.93687e-007 +to 4.93687e-007
Heightened Def Con from 4.93687e-007 +++++++++++++++to 4.93687e-007
Heightened Def Con from 4.93687e-007 ++++++++++++++++++++++to 4.93687e-007
Heightened Def Con from 4.93687e-007 +to 4.93687e-007
Heightened Def Con from 4.93687e-007 +to 4.93687e-007
Heightened Def Con from 4.93687e-007 +to 4.93687e-007
Heightened Def Con from 4.93687e-007 +to 4.93687e-007
Heightened Def Con from 4.93687e-007 +to 4.93687e-007
Heightened Def Con from 4.93687e-007 +to 4.93687e-007
Heightened Def Con from 4.93687e-007 ++++++++++++++++++to 4.93687e-007
Heightened Def Con from 4.93687e-007 ++++++++++++++++++++++to 4.93688e-007
Heightened Def Con from 4.93688e-007 to 4.93688e-007
Heightened Def Con from 4.93688e-007 to 4.93688e-007
Heightened Def Con from 4.93688e-007 to 4.93688e-007
Heightened Def Con from 4.93688e-007 to 4.93688e-007
Heightened Def Con from 4.93688e-007 to 4.93688e-007
Heightened Def Con from 4.93688e-007 to 4.93688e-007
Heightened Def Con from 4.93688e-007 +to 4.93688e-007
Heightened Def Con from 4.93688e-007 +to 4.93688e-007
Heightened Def Con from 4.93688e-007 +++++++++++++++++++to 4.93688e-007
Heightened Def Con from 4.93688e-007 ++++++++++++++++++++++to 4.9369e-007
Heightened Def Con from 4.93691e-007 to 4.93691e-007
Heightened Def Con from 4.93691e-007 to 4.93691e-007
Heightened Def Con from 4.93691e-007 ++++++++++++++++++++++to 4.93691e-007
Heightened Def Con from 4.93692e-007 to 4.93692e-007
Heightened Def Con from 4.93692e-007 +to 4.93692e-007
Heightened Def Con from 4.93692e-007 +++++++++++++++++to 4.93692e-007
Heightened Def Con from 4.93692e-007 ++++++++++++++++++++++to 4.93692e-007
Heightened Def Con from 4.93693e-007 to 4.93693e-007
Heightened Def Con from 4.93693e-007 to 4.93693e-007
Heightened Def Con from 4.93693e-007 to 4.93693e-007
Heightened Def Con from 4.93693e-007 to 4.93693e-007
Heightened Def Con from 4.93693e-007 +to 4.93693e-007
Heightened Def Con from 4.93693e-007 +to 4.93693e-007
Heightened Def Con from 4.93693e-007 +to 4.93693e-007
Heightened Def Con from 4.93693e-007 +to 4.93693e-007
Heightened Def Con from 4.93693e-007 +to 4.93693e-007
Heightened Def Con from 4.93693e-007 +to 4.93693e-007
Heightened Def Con from 4.93693e-007 ++++++++++++++++++++++to 4.93693e-007
Heightened Def Con from 4.93693e-007 to 4.93693e-007
Heightened Def Con from 4.93693e-007 to 4.93693e-007
Heightened Def Con from 4.93693e-007 +to 4.93693e-007
Heightened Def Con from 4.93693e-007 ++to 4.93693e-007
Heightened Def Con from 4.93693e-007 ++++++++++++++++++++++to 4.93694e-007
Heightened Def Con from 4.93694e-007 to 4.93694e-007
Heightened Def Con from 4.93694e-007 to 4.93694e-007
Heightened Def Con from 4.93694e-007 to 4.93694e-007
Heightened Def Con from 4.93694e-007 +to 4.93694e-007
Heightened Def Con from 4.93694e-007 +to 4.93694e-007
Heightened Def Con from 4.93694e-007 +to 4.93694e-007
Heightened Def Con from 4.93694e-007 +to 4.93694e-007
Heightened Def Con from 4.93694e-007 +++++++++++++++++to 4.93694e-007
Heightened Def Con from 4.93694e-007 +++++++++++++++++++to 4.93694e-007
Heightened Def Con from 4.93694e-007 ++++++++++++++++++++++to 4.93694e-007
Heightened Def Con from 4.93695e-007 to 4.93695e-007
Heightened Def Con from 4.93695e-007 to 4.93695e-007
Heightened Def Con from 4.93695e-007 to 4.93695e-007
Heightened Def Con from 4.93695e-007 +to 4.93695e-007
Heightened Def Con from 4.93695e-007 +to 4.93695e-007
Heightened Def Con from 4.93695e-007 +to 4.93695e-007
Heightened Def Con from 4.93695e-007 ++++++++++++++++++to 4.93695e-007
Heightened Def Con from 4.93695e-007 +++++++++++++++++++++to 4.93695e-007
Heightened Def Con from 4.93695e-007 ++++++++++++++++++++++to 4.93695e-007
Heightened Def Con from 4.93696e-007 to 4.93696e-007
Heightened Def Con from 4.93696e-007 to 4.93696e-007
Heightened Def Con from 4.93696e-007 to 4.93696e-007
Heightened Def Con from 4.93696e-007 to 4.93696e-007
Heightened Def Con from 4.93696e-007 to 4.93696e-007
Heightened Def Con from 4.93696e-007 to 4.93696e-007
Heightened Def Con from 4.93696e-007 +to 4.93696e-007
Heightened Def Con from 4.93696e-007 +to 4.93696e-007
Heightened Def Con from 4.93696e-007 +to 4.93696e-007
Heightened Def Con from 4.93696e-007 +to 4.93696e-007
Heightened Def Con from 4.93696e-007 ++++++++++++++++++to 4.93696e-007
Heightened Def Con from 4.93696e-007 ++++++++++++++++++++++to 4.93698e-007
Heightened Def Con from 4.93699e-007 to 4.93699e-007
Heightened Def Con from 4.93699e-007 +to 4.93699e-007
Heightened Def Con from 4.93699e-007 +to 4.93699e-007
Heightened Def Con from 4.93699e-007 ++to 4.93699e-007
Heightened Def Con from 4.93699e-007 +to 4.93699e-007
Heightened Def Con from 4.93699e-007 +to 4.93699e-007
Heightened Def Con from 4.93699e-007 ++++++++++++++++++++++to 4.93699e-007
Heightened Def Con from 4.93699e-007 to 4.93699e-007
Heightened Def Con from 4.93699e-007 to 4.93699e-007
Heightened Def Con from 4.93699e-007 to 4.93699e-007
Heightened Def Con from 4.93699e-007 +to 4.93699e-007
Heightened Def Con from 4.93699e-007 +to 4.93699e-007
Heightened Def Con from 4.93699e-007 +to 4.93699e-007
Heightened Def Con from 4.93699e-007 +to 4.93699e-007
Heightened Def Con from 4.93699e-007 +to 4.93699e-007
Heightened Def Con from 4.93699e-007 ++++++++++++++++++++++to 4.937e-007
Heightened Def Con from 4.937e-007 to 4.937e-007
Heightened Def Con from 4.937e-007 to 4.937e-007
Heightened Def Con from 4.937e-007 +to 4.937e-007
Heightened Def Con from 4.937e-007 +to 4.937e-007
Heightened Def Con from 4.937e-007 +to 4.937e-007
Heightened Def Con from 4.937e-007 +to 4.937e-007
Heightened Def Con from 4.937e-007 +++++++++++++++++to 4.937e-007
Heightened Def Con from 4.937e-007 ++++++++++++++++++++++to 4.937e-007
Heightened Def Con from 4.93701e-007 to 4.93701e-007
Heightened Def Con from 4.93701e-007 to 4.93701e-007
Heightened Def Con from 4.93701e-007 to 4.93701e-007
Heightened Def Con from 4.93701e-007 to 4.93701e-007
Heightened Def Con from 4.93701e-007 to 4.93701e-007
Heightened Def Con from 4.93701e-007 ++++++++++++++++++++++to 4.93701e-007
Heightened Def Con from 4.93702e-007 to 4.93702e-007
Heightened Def Con from 4.93702e-007 +to 4.93702e-007
Heightened Def Con from 4.93702e-007 +to 4.93702e-007
Heightened Def Con from 4.93702e-007 ++to 4.93702e-007
Heightened Def Con from 4.93702e-007 ++++++++++++++++++to 4.93702e-007
Heightened Def Con from 4.93702e-007 +++++++++++++++++++to 4.93702e-007
Heightened Def Con from 4.93702e-007 ++++++++++++++++++++++to 4.93702e-007
Heightened Def Con from 4.93702e-007 to 4.93702e-007
Heightened Def Con from 4.93702e-007 +to 4.93702e-007
Heightened Def Con from 4.93702e-007 +to 4.93702e-007
Heightened Def Con from 4.93702e-007 ++++++++++++++++++++++to 4.93703e-007
Heightened Def Con from 4.93703e-007 to 4.93703e-007
Heightened Def Con from 4.93703e-007 +to 4.93703e-007
Heightened Def Con from 4.93703e-007 ++++++++++++++++++++++to 4.93703e-007
Heightened Def Con from 4.93704e-007 to 4.93704e-007
Heightened Def Con from 4.93704e-007 to 4.93704e-007
Heightened Def Con from 4.93704e-007 ++to 4.93704e-007
Heightened Def Con from 4.93704e-007 ++++++++++++++++++++++to 4.93704e-007
Heightened Def Con from 4.93705e-007 to 4.93705e-007
Heightened Def Con from 4.93705e-007 +to 4.93705e-007
Heightened Def Con from 4.93705e-007 +++to 4.93705e-007
Heightened Def Con from 4.93705e-007 +to 4.93705e-007
Heightened Def Con from 4.93705e-007 +++++++++++to 4.93705e-007
Heightened Def Con from 4.93705e-007 ++++++++++++++++++to 4.93705e-007
Heightened Def Con from 4.93705e-007 ++++++++++++++++++++++to 4.93705e-007
Heightened Def Con from 4.93706e-007 to 4.93706e-007
Heightened Def Con from 4.93706e-007 +to 4.93706e-007
Heightened Def Con from 4.93706e-007 +to 4.93706e-007
Heightened Def Con from 4.93706e-007 ++to 4.93706e-007
Heightened Def Con from 4.93706e-007 +++to 4.93706e-007
Heightened Def Con from 4.93706e-007 +++to 4.93706e-007
Heightened Def Con from 4.93706e-007 ++to 4.93706e-007
Heightened Def Con from 4.93706e-007 ++to 4.93706e-007
Heightened Def Con from 4.93706e-007 ++++++++++++++++++++++to 4.93721e-007
Heightened Def Con from 4.93721e-007 +++++++++++++++++++to 4.93721e-007
Heightened Def Con from 4.93725e-007 +to 4.93725e-007
Heightened Def Con from 4.93725e-007 +to 4.93725e-007
Heightened Def Con from 4.93725e-007 +to 4.93725e-007
Heightened Def Con from 4.93725e-007 ++to 4.93725e-007
Heightened Def Con from 4.93725e-007 +++++to 4.93725e-007
Heightened Def Con from 4.93725e-007 ++to 4.93725e-007
Heightened Def Con from 4.93725e-007 +to 4.93725e-007
Heightened Def Con from 4.93725e-007 +to 4.93725e-007
Heightened Def Con from 4.93725e-007 +++++to 4.93725e-007
Heightened Def Con from 4.93725e-007 +++++++++++++to 4.93725e-007
Heightened Def Con from 4.93725e-007 ++++++++++++++++++++to 4.93725e-007
Heightened Def Con from 4.93725e-007 ++++++++++++++++++++to 4.93725e-007
Heightened Def Con from 4.93725e-007 ++++++++++++++++++++to 4.93725e-007
Heightened Def Con from 4.93725e-007 ++++++++++++++++++++to 4.93725e-007
Heightened Def Con from 4.93725e-007 ++++++++++++++++++++to 4.93725e-007
Heightened Def Con from 4.93725e-007 ++++++++++++++++++++to 4.93725e-007
Heightened Def Con from 4.93725e-007 ++++++++++++++++++++to 4.93725e-007
Heightened Def Con from 4.93725e-007 ++++++++++++++++++++to 4.93725e-007
Heightened Def Con from 4.93725e-007 ++++++++++++++++++++to 4.93725e-007
Heightened Def Con from 4.93725e-007 ++++++++++++++++++++to 4.93725e-007
Heightened Def Con from 4.93725e-007 ++++++++++++++++++++to 4.93725e-007
Heightened Def Con from 4.93725e-007 ++++++++++++++++++++to 4.93725e-007
Heightened Def Con from 4.93725e-007 ++++++++++++++++++++to 4.93725e-007
Heightened Def Con from 4.93725e-007 ++++++++++++++++++++to 4.93725e-007
Heightened Def Con from 4.93725e-007 ++++++++++++++++++++to 4.93725e-007
Heightened Def Con from 4.93725e-007 ++++++++++++++++++++to 4.93725e-007
Heightened Def Con from 4.93725e-007 ++++++++++++++++++++to 4.93725e-007
Heightened Def Con from 4.93725e-007 ++++++++++++++++++++to 4.93725e-007
Heightened Def Con from 4.93725e-007 ++++++++++++++++++++to 4.93725e-007
Heightened Def Con from 4.93725e-007 ++++++++++++++++++++to 4.93725e-007
Heightened Def Con from 4.93725e-007 ++++++++++++++++++++to 4.93725e-007
Heightened Def Con from 4.93725e-007 ++++++++++++++++++++to 4.93725e-007
Heightened Def Con from 4.93725e-007 ++++++++++++++++++++to 4.93725e-007
Heightened Def Con from 4.93725e-007 ++++++++++++++++++++to 4.93725e-007
Heightened Def Con from 4.93725e-007 ++++++++++++++++++++to 4.93725e-007
Heightened Def Con from 4.93725e-007 ++++++++++++++++++++to 4.93725e-007
Heightened Def Con from 4.93725e-007 ++++++++++++++++++++to 4.93725e-007
Heightened Def Con from 4.93725e-007 ++++++++++++++++++++to 4.93725e-007
Heightened Def Con from 4.93725e-007 ++++++++++++++++++++to 4.93726e-007
Heightened Def Con from 4.93726e-007 ++++++++++++++++++++to 4.93726e-007
Heightened Def Con from 4.93726e-007 ++++++++++++++++++++to 4.93726e-007
Heightened Def Con from 4.93726e-007 ++++++++++++++++++++to 4.93726e-007
Heightened Def Con from 4.93726e-007 ++++++++++++++++++++to 4.93726e-007
Heightened Def Con from 4.93726e-007 ++++++++++++++++++++to 4.93726e-007
Heightened Def Con from 4.93726e-007 ++++++++++++++++++++to 4.93726e-007
Heightened Def Con from 4.93726e-007 ++++++++++++++++++++to 4.93726e-007
Heightened Def Con from 4.93726e-007 ++++++++++++++++++++to 4.93726e-007
Heightened Def Con from 4.93726e-007 ++++++++++++++++++++to 4.93726e-007
Heightened Def Con from 4.93726e-007 ++++++++++++++++++++to 4.93726e-007
Heightened Def Con from 4.93726e-007 ++++++++++++++++++++to 4.93726e-007
Heightened Def Con from 4.93726e-007 ++++++++++++++++++++to 4.93726e-007
Heightened Def Con from 4.93726e-007 ++++++++++++++++++++to 4.93726e-007
Heightened Def Con from 4.93726e-007 ++++++++++++++++++++to 4.93726e-007
Heightened Def Con from 4.93726e-007 ++++++++++++++++++++to 4.93726e-007
Heightened Def Con from 4.93726e-007 ++++++++++++++++++++to 4.93726e-007
Heightened Def Con from 4.93726e-007 ++++++++++++++++++++to 4.93726e-007
Heightened Def Con from 4.93726e-007 ++++++++++++++++++++to 4.93726e-007
Heightened Def Con from 4.93726e-007 ++++++++++++++++++++to 4.93726e-007
Heightened Def Con from 4.93726e-007 ++++++++++++++++++++to 4.93726e-007
Heightened Def Con from 4.93726e-007 ++++++++++++++++++++to 4.93726e-007
Heightened Def Con from 4.93726e-007 ++++++++++++++++++++to 4.93726e-007
Heightened Def Con from 4.93726e-007 ++++++++++++++++++++to 4.93726e-007
Heightened Def Con from 4.93726e-007 ++++++++++++++++++++to 4.93726e-007
Heightened Def Con from 4.93726e-007 ++++++++++++++++++++to 4.93726e-007
Heightened Def Con from 4.93726e-007 ++++++++++++++++++++to 4.93726e-007
Heightened Def Con from 4.93726e-007 ++++++++++++++++++++to 4.93726e-007
Heightened Def Con from 4.93726e-007 ++++++++++++++++++++to 4.93726e-007
Heightened Def Con from 4.93726e-007 ++++++++++++++++++++to 4.93726e-007
Heightened Def Con from 4.93726e-007 ++++++++++++++++++++to 4.93726e-007
Heightened Def Con from 4.93726e-007 ++++++++++++++++++++to 4.93726e-007
Heightened Def Con from 4.93726e-007 ++++++++++++++++++++to 4.93726e-007
Heightened Def Con from 4.93726e-007 ++++++++++++++++++++to 4.93726e-007
Heightened Def Con from 4.93726e-007 ++++++++++++++++++++to 4.93726e-007
Heightened Def Con from 4.93726e-007 ++++++++++++++++++++to 4.93726e-007
Heightened Def Con from 4.93726e-007 ++++++++++++++++++++to 4.93726e-007
Heightened Def Con from 4.93726e-007 ++++++++++++++++++++to 4.93726e-007
Heightened Def Con from 4.93726e-007 ++++++++++++++++++++to 4.93726e-007
Heightened Def Con from 4.93726e-007 ++++++++++++++++++++to 4.93726e-007
Heightened Def Con from 4.93726e-007 ++++++++++++++++++++to 4.93726e-007
Heightened Def Con from 4.93726e-007 ++++++++++++++++++++to 4.93726e-007
Heightened Def Con from 4.93726e-007 ++++++++++++++++++++to 4.93726e-007
Heightened Def Con from 4.93726e-007 ++++++++++++++++++++to 4.93726e-007
Heightened Def Con from 4.93726e-007 ++++++++++++++++++++to 4.93726e-007
Heightened Def Con from 4.93726e-007 ++++++++++++++++++++to 4.93726e-007
Heightened Def Con from 4.93726e-007 ++++++++++++++++++++to 4.93726e-007
Heightened Def Con from 4.93726e-007 ++++++++++++++++++++to 4.93726e-007
Heightened Def Con from 4.93726e-007 ++++++++++++++++++++to 4.93726e-007
Heightened Def Con from 4.93726e-007 ++++++++++++++++++++to 4.93726e-007
Heightened Def Con from 4.93726e-007 ++++++++++++++++++++to 4.93726e-007
Heightened Def Con from 4.93726e-007 ++++++++++++++++++++to 4.93726e-007
Heightened Def Con from 4.93726e-007 ++++++++++++++++++++to 4.93726e-007
Heightened Def Con from 4.93726e-007 ++++++++++++++++++++to 4.93726e-007
Heightened Def Con from 4.93726e-007 ++++++++++++++++++++to 4.93726e-007
Heightened Def Con from 4.93726e-007 ++++++++++++++++++++to 4.93726e-007
Heightened Def Con from 4.93726e-007 ++++++++++++++++++++to 4.93726e-007
Heightened Def Con from 4.93726e-007 ++++++++++++++++++++to 4.93726e-007
Heightened Def Con from 4.93726e-007 ++++++++++++++++++++to 4.93726e-007
Heightened Def Con from 4.93726e-007 ++++++++++++++++++++to 4.93726e-007
Heightened Def Con from 4.93726e-007 +++++++++++to 4.93726e-007
Heightened Def Con from 4.93726e-007 ++++++++++++++++++++to 4.93726e-007
Heightened Def Con from 4.93726e-007 ++++++++++++++++++++to 4.93726e-007
Heightened Def Con from 4.93726e-007 ++++++++++++++++++++to 4.93726e-007
Heightened Def Con from 4.93726e-007 ++++++++++++++++++++to 4.93726e-007
Heightened Def Con from 4.93726e-007 ++++++++++++++++++++to 4.93726e-007
Heightened Def Con from 4.93726e-007 ++++++++++++++++++++to 4.93726e-007
Heightened Def Con from 4.93726e-007 ++++++++++++++++++++to 4.93726e-007
Heightened Def Con from 4.93726e-007 ++++++++++++++++++++to 4.93726e-007
Heightened Def Con from 4.93726e-007 ++++++++++++++++++++to 4.93726e-007
Heightened Def Con from 4.93726e-007 ++++++++++++++++++++to 4.93726e-007
Heightened Def Con from 4.93726e-007 ++++++++++++++++++++to 4.93726e-007
Heightened Def Con from 4.93726e-007 ++++++++++++++++++++to 4.93726e-007
Heightened Def Con from 4.93726e-007 ++++++++++++++++++++to 4.93726e-007
Heightened Def Con from 4.93726e-007 ++++++++++++++++++++to 4.93726e-007
Heightened Def Con from 4.93726e-007 ++++++++++++++++++++to 4.93726e-007
Heightened Def Con from 4.93726e-007 ++++++++++++++++++++to 4.93726e-007
Heightened Def Con from 4.93726e-007 ++++++++++++++++++++to 4.93726e-007
Heightened Def Con from 4.93726e-007 ++++++++++++++++++++to 4.93726e-007
Heightened Def Con from 4.93726e-007 ++++++++++++++++++++to 4.93726e-007
Heightened Def Con from 4.93726e-007 ++++++++++++++++++++to 4.93726e-007
Heightened Def Con from 4.93726e-007 ++++++++++++++++++++to 4.93726e-007
Heightened Def Con from 4.93726e-007 ++++++++++++++++++++to 4.93726e-007
Heightened Def Con from 4.93726e-007 ++++++++++++++++++++to 4.93726e-007
Heightened Def Con from 4.93726e-007 ++++++++++++++++++++to 4.93726e-007
Heightened Def Con from 4.93726e-007 ++++++++++++++++++++to 4.93726e-007
Heightened Def Con from 4.93726e-007 ++++++++++++++++++++to 4.93726e-007
Heightened Def Con from 4.93726e-007 ++++++++++++++++++++to 4.93726e-007
Heightened Def Con from 4.93726e-007 ++++++++++++++++++++to 4.93726e-007
Heightened Def Con from 4.93726e-007 ++++++++++++++++++++to 4.93726e-007
Heightened Def Con from 4.93726e-007 ++++++++++++++++++++to 4.93726e-007
Heightened Def Con from 4.93726e-007 ++++++++++++++++++++to 4.93726e-007
Heightened Def Con from 4.93726e-007 ++++++++++++++++++++to 4.93726e-007
Heightened Def Con from 4.93726e-007 ++++++++++++++++++++to 4.93726e-007
Heightened Def Con from 4.93726e-007 ++++++++++++++++++++to 4.93726e-007
Heightened Def Con from 4.93726e-007 ++++++++++++++++++++to 4.93726e-007
Heightened Def Con from 4.93726e-007 ++++++++++++++++++++to 4.93726e-007
Heightened Def Con from 4.93726e-007 ++++++++++++++++++++to 4.93726e-007
Heightened Def Con from 4.93726e-007 ++++++++++++++++++++to 4.93726e-007
Heightened Def Con from 4.93726e-007 ++++++++++++++++++++to 4.93726e-007
Heightened Def Con from 4.93726e-007 ++++++++++++++++++++to 4.93726e-007
Heightened Def Con from 4.93726e-007 ++++++++++++++++++++to 4.93726e-007
Heightened Def Con from 4.93726e-007 ++++++++++++++++++++to 4.93726e-007
Heightened Def Con from 4.93726e-007 ++++++++++++++++++++to 4.93726e-007
Heightened Def Con from 4.93726e-007 ++++++++++++++++++++to 4.93726e-007
Heightened Def Con from 4.93726e-007 ++++++++++++++++++++to 4.93726e-007
Heightened Def Con from 4.93726e-007 ++++++++++++++++++++to 4.93726e-007
Heightened Def Con from 4.93726e-007 ++++++++++++++++++++to 4.93726e-007
Heightened Def Con from 4.93726e-007 ++++++++++++++++++++to 4.93726e-007
Heightened Def Con from 4.93726e-007 ++++++++++++++++++++to 4.93726e-007
Heightened Def Con from 4.93726e-007 ++++++++++++++++++++to 4.93726e-007
Heightened Def Con from 4.93726e-007 ++++++++++++++++++++to 4.93726e-007
Heightened Def Con from 4.93726e-007 +++++to 4.93726e-007
Heightened Def Con from 4.93726e-007 ++++++++++++++++++++to 4.93726e-007
Heightened Def Con from 4.93726e-007 ++++++++++++++++++++to 4.93726e-007
Heightened Def Con from 4.93726e-007 ++++++++++++++++++++to 4.93726e-007
Heightened Def Con from 4.93726e-007 ++++++++++++++++++++to 4.93726e-007
Heightened Def Con from 4.93726e-007 ++++++++++++++++++++to 4.93726e-007
Heightened Def Con from 4.93726e-007 ++++++++++++++++++++to 4.93726e-007
Heightened Def Con from 4.93726e-007 ++++++++++++++++++++to 4.93726e-007
Heightened Def Con from 4.93726e-007 ++++++++++++++++++++to 4.93726e-007
Heightened Def Con from 4.93726e-007 ++++++++++++++++++++to 4.93726e-007
Heightened Def Con from 4.93726e-007 ++++++++++++++++++++to 4.93726e-007
Heightened Def Con from 4.93726e-007 ++++++++++++++++++++to 4.93726e-007
Heightened Def Con from 4.93726e-007 ++++++++++++++++++++to 4.93726e-007
Heightened Def Con from 4.93726e-007 ++++++++++++++++++++to 4.93726e-007
Heightened Def Con from 4.93726e-007 ++++++++++++++++++++to 4.93726e-007
Heightened Def Con from 4.93726e-007 ++++++++++++++++++++to 4.93726e-007
Heightened Def Con from 4.93726e-007 ++++++++++++++++++++to 4.93726e-007
Heightened Def Con from 4.93726e-007 ++++++++++++++++++++to 4.93726e-007
Heightened Def Con from 4.93726e-007 ++++++++++++++++++++to 4.93726e-007
Heightened Def Con from 4.93726e-007 ++++++++++++++++++++to 4.93726e-007
Heightened Def Con from 4.93726e-007 ++++++++++++++++++++to 4.93726e-007
Heightened Def Con from 4.93726e-007 ++++++++++++++++++++to 4.93726e-007
Heightened Def Con from 4.93726e-007 ++++++++++++++++++++to 4.93726e-007
Heightened Def Con from 4.93726e-007 ++++++++++++++++++++to 4.93726e-007
Heightened Def Con from 4.93726e-007 ++++++++++++++++++++to 4.93726e-007
Heightened Def Con from 4.93726e-007 ++++++++++++++++++++to 4.93726e-007
Heightened Def Con from 4.93726e-007 ++++++++++++++++++++to 4.93726e-007
Heightened Def Con from 4.93726e-007 ++++++++++++++++++++to 4.93726e-007
Heightened Def Con from 4.93726e-007 ++++++++++++++++++++to 4.93726e-007
Heightened Def Con from 4.93726e-007 ++++++++++++++++++++to 4.93726e-007
Heightened Def Con from 4.93726e-007 ++++++++++++++++++++to 4.93726e-007
Heightened Def Con from 4.93726e-007 ++++++++++++++++++++to 4.93726e-007
Heightened Def Con from 4.93726e-007 ++++++++++++++++++++to 4.93726e-007
Heightened Def Con from 4.93726e-007 ++++++++++++++++++++to 4.93726e-007
Heightened Def Con from 4.93726e-007 ++++++++++++++++++++to 4.93726e-007
Heightened Def Con from 4.93726e-007 ++++++++++++++++++++to 4.93726e-007
Heightened Def Con from 4.93726e-007 ++++++++++++++++++++to 4.93726e-007
Heightened Def Con from 4.93726e-007 ++++++++++++++++++++to 4.93726e-007
Heightened Def Con from 4.93726e-007 ++++++++++++++++++++to 4.93726e-007
Heightened Def Con from 4.93726e-007 ++++++++++++++++++++to 4.93726e-007
Heightened Def Con from 4.93726e-007 ++++++++++++++++++++to 4.93726e-007
Heightened Def Con from 4.93726e-007 ++++++++++++++++++++to 4.93726e-007
Heightened Def Con from 4.93726e-007 ++++++++++++++++++++to 4.93726e-007
Heightened Def Con from 4.93726e-007 ++++++++++++++++++++to 4.93726e-007
Heightened Def Con from 4.93726e-007 ++++++++++++++++++++to 4.93726e-007
Heightened Def Con from 4.93726e-007 ++++++++++++++++++++to 4.93726e-007
Heightened Def Con from 4.93726e-007 ++++++++++++++++++++to 4.93726e-007
Heightened Def Con from 4.93726e-007 ++++++++++++++++++++to 4.93726e-007
Heightened Def Con from 4.93726e-007 ++++++++++++++++++++to 4.93726e-007
Heightened Def Con from 4.93726e-007 ++++++++++++++++++++to 4.93726e-007
Heightened Def Con from 4.93726e-007 ++++++++++++++++++++to 4.93726e-007
Heightened Def Con from 4.93726e-007 ++++++++++++++++++++to 4.93726e-007
Heightened Def Con from 4.93726e-007 ++++++++++++++++++++to 4.93726e-007
Heightened Def Con from 4.93726e-007 ++++++++++++++++++++to 4.93726e-007
Heightened Def Con from 4.93726e-007 ++++++++++++++++++++to 4.93726e-007
Heightened Def Con from 4.93726e-007 ++++++++++++++++++++to 4.93726e-007
Heightened Def Con from 4.93726e-007 ++++++++++++++++++++to 4.93726e-007
Heightened Def Con from 4.93726e-007 ++++++++++++++++++++to 4.93726e-007
Heightened Def Con from 4.93726e-007 ++++++++++++++++++++to 4.93726e-007
Heightened Def Con from 4.93726e-007 ++++++++++++++++++++to 4.93726e-007
Heightened Def Con from 4.93726e-007 ++++++++++++++++++++to 4.93726e-007
Heightened Def Con from 4.93726e-007 ++++++++++++++++++++to 4.93726e-007
Heightened Def Con from 4.93726e-007 ++++++++++++++++++++to 4.93726e-007
Heightened Def Con from 4.93726e-007 ++++++++++++++++++++to 4.93726e-007
Heightened Def Con from 4.93726e-007 ++++++++++++++++++++to 4.93726e-007
Heightened Def Con from 4.93726e-007 ++++++++++++++++++++to 4.93726e-007
Heightened Def Con from 4.93726e-007 ++++++++++++++++++++to 4.93726e-007
Heightened Def Con from 4.93726e-007 ++++++++++++++++++++to 4.93726e-007
Heightened Def Con from 4.93726e-007 ++++++++++++++++++++to 4.93726e-007
Heightened Def Con from 4.93726e-007 ++++++++++++++++++++to 4.93726e-007
Heightened Def Con from 4.93726e-007 ++++++++++++++++++++to 4.93726e-007
Heightened Def Con from 4.93726e-007 ++++++++++++++++++++to 4.93726e-007
Heightened Def Con from 4.93726e-007 ++++++++++++++++++++to 4.93726e-007
Heightened Def Con from 4.93726e-007 ++++++++++++++++++++to 4.93726e-007
Heightened Def Con from 4.93726e-007 ++++++++++++++++++++to 4.93726e-007
Heightened Def Con from 4.93726e-007 ++++++++++++++++++++to 4.93726e-007
Heightened Def Con from 4.93726e-007 ++++++++++++++++++++to 4.93726e-007
Heightened Def Con from 4.93726e-007 ++++++++++++++++++++to 4.93726e-007
Heightened Def Con from 4.93726e-007 ++++++++++++++++++++to 4.93726e-007
Heightened Def Con from 4.93726e-007 ++++++++++++++++++++to 4.93726e-007
Heightened Def Con from 4.93726e-007 ++++++++++++++++++++to 4.93726e-007
Heightened Def Con from 4.93726e-007 ++++++++++++++++++++to 4.93726e-007
Heightened Def Con from 4.93726e-007 ++++++++++++++++++++to 4.93726e-007
Heightened Def Con from 4.93726e-007 ++++++++++++++++++++to 4.93726e-007
Heightened Def Con from 4.93726e-007 ++++++++++++++++++++to 4.93726e-007
Heightened Def Con from 4.93726e-007 ++++++++++++++++++++to 4.93726e-007
Heightened Def Con from 4.93726e-007 ++++++++++++++++++++to 4.93726e-007
Heightened Def Con from 4.93726e-007 ++++++++++++++++++++to 4.93726e-007
Heightened Def Con from 4.93726e-007 ++++++++++++++++++++to 4.93726e-007
Heightened Def Con from 4.93726e-007 ++++++++++++++++++++to 4.93726e-007
Heightened Def Con from 4.93726e-007 ++++++++++++++++++++to 4.93726e-007
Heightened Def Con from 4.93726e-007 ++++++++++++++++++++to 4.93726e-007
Heightened Def Con from 4.93726e-007 ++++++++++++++++++++to 4.93726e-007
Heightened Def Con from 4.93726e-007 ++++++++++++++++++++to 4.93726e-007
Heightened Def Con from 4.93726e-007 ++++++++++++++++++++to 4.93726e-007
Heightened Def Con from 4.93726e-007 ++++++++++++++++++++to 4.93726e-007
Heightened Def Con from 4.93726e-007 ++++++++++++++++++++to 4.93726e-007
Heightened Def Con from 4.93726e-007 ++++++++++++++++++++to 4.93726e-007
Heightened Def Con from 4.93726e-007 ++++++++++++++++++++to 4.93726e-007
Heightened Def Con from 4.93726e-007 ++++++++++++++++++++to 4.93726e-007
Heightened Def Con from 4.93726e-007 ++++++++++++++++++++to 4.93726e-007
Heightened Def Con from 4.93726e-007 ++++++++++++++++++++to 4.93726e-007
Heightened Def Con from 4.93726e-007 ++++++++++++++++++++to 4.93726e-007
Heightened Def Con from 4.93726e-007 ++++++++++++++++++++to 4.93726e-007
Heightened Def Con from 4.93726e-007 ++++++++++++++++++++to 4.93726e-007
Heightened Def Con from 4.93726e-007 ++++++++++++++++++++to 4.93726e-007
Heightened Def Con from 4.93726e-007 ++++++++++++++++++++to 4.93726e-007
Heightened Def Con from 4.93726e-007 ++++++++++++++++++++to 4.93726e-007
Heightened Def Con from 4.93726e-007 ++++++++++++++++++++to 4.93726e-007
Heightened Def Con from 4.93726e-007 ++++++++++++++++++++to 4.93726e-007
Heightened Def Con from 4.93726e-007 ++++++++++++++++++++to 4.93726e-007
Heightened Def Con from 4.93726e-007 ++++++++++++++++++++to 4.93726e-007
Heightened Def Con from 4.93726e-007 ++++++++++++++++++++to 4.93726e-007
Heightened Def Con from 4.93726e-007 ++++++++++++++++++++to 4.93726e-007
Heightened Def Con from 4.93726e-007 ++++++++++++++++++++to 4.93726e-007
Heightened Def Con from 4.93726e-007 ++++++++++++++++++++to 4.93726e-007
Heightened Def Con from 4.93726e-007 ++++++++++++++++++++to 4.93726e-007
Heightened Def Con from 4.93726e-007 ++++++++++++++++++++to 4.93726e-007
Heightened Def Con from 4.93726e-007 ++++++++++++++++++++to 4.93726e-007
Heightened Def Con from 4.93726e-007 ++++++++++++++++++++to 4.93726e-007
Heightened Def Con from 4.93726e-007 ++++++++++++++++++++to 4.93726e-007
Heightened Def Con from 4.93726e-007 ++++++++++++++++++++to 4.93726e-007
Heightened Def Con from 4.93726e-007 ++++++++++++++++++++to 4.93726e-007
Heightened Def Con from 4.93726e-007 ++++++++++++++++++++to 4.93726e-007
Heightened Def Con from 4.93726e-007 ++++++++++++++++++++to 4.93726e-007
Heightened Def Con from 4.93726e-007 ++++++++++++++++++++to 4.93726e-007
Heightened Def Con from 4.93726e-007 ++++++++++++++++++++to 4.93726e-007
Heightened Def Con from 4.93726e-007 ++++++++++++++++++++to 4.93726e-007
Heightened Def Con from 4.93726e-007 ++++++++++++++++++++to 4.93726e-007
Heightened Def Con from 4.93726e-007 ++++++++++++++++++++to 4.93726e-007
Heightened Def Con from 4.93726e-007 ++++++++++++++++++++to 4.93726e-007
Heightened Def Con from 4.93726e-007 ++++++++++++++++++++to 4.93726e-007
Heightened Def Con from 4.93726e-007 ++++++++++++++++++++to 4.93726e-007
Heightened Def Con from 4.93726e-007 ++++++++++++++++++++to 4.93726e-007
Heightened Def Con from 4.93726e-007 ++++++++++++++++++++to 4.93726e-007
Heightened Def Con from 4.93726e-007 ++++++++++++++++++++to 4.93726e-007
Heightened Def Con from 4.93726e-007 ++++++++++++++++++++to 4.93726e-007
Heightened Def Con from 4.93726e-007 ++++++++++++++++++++to 4.93726e-007
Heightened Def Con from 4.93726e-007 ++++++++++++++++++++to 4.93726e-007
Heightened Def Con from 4.93726e-007 ++++++++++++++++++++to 4.93726e-007
Heightened Def Con from 4.93726e-007 ++++++++++++++++++++to 4.93726e-007
Heightened Def Con from 4.93726e-007 ++++++++++++++++++++to 4.93726e-007
Heightened Def Con from 4.93726e-007 ++++++++++++++++++++to 4.93726e-007
Heightened Def Con from 4.93726e-007 ++++++++++++++++++++to 4.93726e-007
Heightened Def Con from 4.93726e-007 ++++++++++++++++++++to 4.93726e-007
Heightened Def Con from 4.93726e-007 ++++++++++++++++++++to 4.93726e-007
Heightened Def Con from 4.93726e-007 ++++++++++++++++++++to 4.93726e-007
Heightened Def Con from 4.93726e-007 ++++++++++++++++++++to 4.93726e-007
Heightened Def Con from 4.93726e-007 ++++++++++++++++++++to 4.93726e-007
Heightened Def Con from 4.93726e-007 ++++++++++++++++++++to 4.93726e-007
Heightened Def Con from 4.93726e-007 ++++++++++++++++++++to 4.93726e-007
Heightened Def Con from 4.93726e-007 ++++++++++++++++++++to 4.93726e-007
Heightened Def Con from 4.93726e-007 ++++++++++++++++++++to 4.93727e-007
Heightened Def Con from 4.93727e-007 ++++++++++++++++++++to 4.93727e-007
Heightened Def Con from 4.93727e-007 ++++++++++++++++++++to 4.93727e-007
Heightened Def Con from 4.93727e-007 ++++++++++++++++++++to 4.93727e-007
Heightened Def Con from 4.93727e-007 ++++++++++++++++++++to 4.93727e-007
Heightened Def Con from 4.93727e-007 ++++++++++++++++++++to 4.93727e-007
[...]
Heightened Def Con from 4.9373e-007 ++++++++++++++++++++to 4.9373e-007
Heightened Def Con from 4.9373e-007 ++++++++++++++++++++to 4.9373e-007
Heightened Def Con from 4.9373e-007 ++++++++++++++++++++to 4.9373e-007
Heightened Def Con from 4.9373e-007 ++++++++++++++++++++to 4.9373e-007
Heightened Def Con from 4.9373e-007 ++++++++++++++++++++to 4.9373e-007
Heightened Def Con from 4.9373e-007 ++++++++++++++++++++to 4.9373e-007
Heightened Def Con from 4.9373e-007 ++++++++++++++++++++to 4.9373e-007
Heightened Def Con from 4.9373e-007 ++++++++++++++++++++to 4.9373e-007
Heightened Def Con from 4.9373e-007 ++++++++++++++++++++to 4.9373e-007
Heightened Def Con from 4.9373e-007 ++++++++++++++++++++to 4.9373e-007
Heightened Def Con from 4.9373e-007 ++++++++++++++++++++to 4.9373e-007
Heightened Def Con from 4.9373e-007 ++++++++++++++++++++to 4.9373e-007
Heightened Def Con from 4.9373e-007 ++++++++++++++++++++to 4.9373e-007
Heightened Def Con from 4.9373e-007 ++++++++++++++++++++to 4.9373e-007
Heightened Def Con from 4.9373e-007 ++++++++++++++++++++to 4.9373e-007
Heightened Def Con from 4.9373e-007 ++++++++++++++++++++to 4.9373e-007
Heightened Def Con from 4.9373e-007 ++++++++++++++++++++to 4.9373e-007
Heightened Def Con from 4.9373e-007 ++++++++++++++++++++to 4.9373e-007
Heightened Def Con from 4.9373e-007 ++++++++++++++++++++to 4.9373e-007
Heightened Def Con from 4.9373e-007 ++++++++++++++++++++to 4.9373e-007
Heightened Def Con from 4.9373e-007 ++++++++++++++++++++to 4.9373e-007
Heightened Def Con from 4.9373e-007 ++++++++++++++++++++to 4.9373e-007
Heightened Def Con from 4.9373e-007 ++++++++++++++++++++to 4.9373e-007
Heightened Def Con from 4.9373e-007 ++++++++++++++++++++to 4.9373e-007
Heightened Def Con from 4.9373e-007 ++++++++++++++++++++to 4.9373e-007
Heightened Def Con from 4.9373e-007 ++++++++++++++++++++to 4.9373e-007
Heightened Def Con from 4.9373e-007 ++++++++++++++++++++to 4.9373e-007
Heightened Def Con from 4.9373e-007 ++++++++++++++++++++to 4.9373e-007
Heightened Def Con from 4.9373e-007 ++++++++++++++++++++to 4.9373e-007
Heightened Def Con from 4.9373e-007 ++++++++++++++++++++to 4.9373e-007
Heightened Def Con from 4.9373e-007 ++++++++++++++++++++to 4.9373e-007
Heightened Def Con from 4.9373e-007 ++++++++++++++++++++to 4.9373e-007
Heightened Def Con from 4.9373e-007 ++++++++++++++++++++to 4.9373e-007
Heightened Def Con from 4.9373e-007 ++++++++++++++++++++to 4.9373e-007
Heightened Def Con from 4.9373e-007 ++++++++++++++++++++to 4.9373e-007
Heightened Def Con from 4.9373e-007 ++++++++++++++++++++to 4.9373e-007
Heightened Def Con from 4.9373e-007 ++++++++++++++++++++to 4.9373e-007
Heightened Def Con from 4.9373e-007 ++++++++++++++++++++to 4.9373e-007
Heightened Def Con from 4.9373e-007 ++++++++++++++++++++to 4.9373e-007
Heightened Def Con from 4.9373e-007 ++++++++++++++++++++to 4.9373e-007
Heightened Def Con from 4.9373e-007 ++++++++++++++++++++to 4.9373e-007
Heightened Def Con from 4.9373e-007 ++++++++++++++++++++to 4.9373e-007
Heightened Def Con from 4.9373e-007 ++++++++++++++++++++to 4.9373e-007
Heightened Def Con from 4.9373e-007 ++++++++++++++++++++to 4.9373e-007
Heightened Def Con from 4.9373e-007 ++++++++++++++++++++to 4.9373e-007
Heightened Def Con from 4.9373e-007 ++++++++++++++++++++to 4.9373e-007
Heightened Def Con from 4.9373e-007 ++++++++++++++++++++to 4.9373e-007
Heightened Def Con from 4.9373e-007 ++++++++++++++++++++to 4.9373e-007
Heightened Def Con from 4.9373e-007 ++++++++++++++++++++to 4.9373e-007
Heightened Def Con from 4.9373e-007 ++++++++++++++++++++to 4.9373e-007
Heightened Def Con from 4.9373e-007 ++++++++++++++++++++to 4.9373e-007
Heightened Def Con from 4.9373e-007 ++++++++++++++++++++to 4.9373e-007
Heightened Def Con from 4.9373e-007 ++++++++++++++++++++to 4.9373e-007
Heightened Def Con from 4.9373e-007 ++++++++++++++++++++to 4.9373e-007
Heightened Def Con from 4.9373e-007 ++++++++++++++++++++to 4.9373e-007
Heightened Def Con from 4.9373e-007 ++++++++++++++++++++to 4.9373e-007
Heightened Def Con from 4.9373e-007 ++++++++++++++++++++to 4.9373e-007
Heightened Def Con from 4.9373e-007 ++++++++++++++++++++to 4.9373e-007
Heightened Def Con from 4.9373e-007 ++++++++++++++++++++to 4.9373e-007
Heightened Def Con from 4.9373e-007 ++++++++++++++++++++to 4.9373e-007
Heightened Def Con from 4.9373e-007 ++++++++++++++++++++to 4.9373e-007
Heightened Def Con from 4.9373e-007 ++++++++++++++++++++to 4.9373e-007
Heightened Def Con from 4.9373e-007 ++++++++++++++++++++to 4.9373e-007
Heightened Def Con from 4.9373e-007 ++++++++++++++++++++to 4.9373e-007
Heightened Def Con from 4.9373e-007 ++++++++++++++++++++to 4.9373e-007
Heightened Def Con from 4.9373e-007 ++++++++++++++++++++to 4.9373e-007
Heightened Def Con from 4.9373e-007 ++++++++++++++++++++to 4.9373e-007
Heightened Def Con from 4.9373e-007 ++++++++++++++++++++to 4.9373e-007
Heightened Def Con from 4.9373e-007 ++++++++++++++++++++to 4.9373e-007
Heightened Def Con from 4.9373e-007 ++++++++++++++++++++to 4.9373e-007
Heightened Def Con from 4.9373e-007 ++++++++++++++++++++to 4.9373e-007
Heightened Def Con from 4.9373e-007 ++++++++++++++++++++to 4.9373e-007
Heightened Def Con from 4.9373e-007 ++++++++++++++++++++to 4.9373e-007
Heightened Def Con from 4.9373e-007 ++++++++++++++++++++to 4.9373e-007
Heightened Def Con from 4.9373e-007 ++++++++++++++++++++to 4.9373e-007
Heightened Def Con from 4.9373e-007 ++++++++++++++++++++to 4.9373e-007
Heightened Def Con from 4.9373e-007 ++++++++++++++++++++to 4.9373e-007
Heightened Def Con from 4.9373e-007 ++++++++++++++++++++to 4.9373e-007
Heightened Def Con from 4.9373e-007 ++++++++++++++++++++to 4.9373e-007
Heightened Def Con from 4.9373e-007 ++++++++++++++++++++to 4.9373e-007
Heightened Def Con from 4.9373e-007 ++++++++++++++++++++to 4.9373e-007
Heightened Def Con from 4.9373e-007 ++++++++++++++++++++to 4.9373e-007
Heightened Def Con from 4.9373e-007 ++++++++++++++++++++to 4.9373e-007
Heightened Def Con from 4.9373e-007 ++++++++++++++++++++to 4.9373e-007
Heightened Def Con from 4.9373e-007 ++++++++++++++++++++to 4.9373e-007
Heightened Def Con from 4.9373e-007 ++++++++++++++++++++to 4.9373e-007
Heightened Def Con from 4.9373e-007 ++++++++++++++++++++to 4.9373e-007
Heightened Def Con from 4.9373e-007 ++++++++++++++++++++to 4.9373e-007
Heightened Def Con from 4.9373e-007 ++++++++++++++++++++to 4.9373e-007
Heightened Def Con from 4.9373e-007 ++++++++++++++++++++to 4.9373e-007
Heightened Def Con from 4.9373e-007 ++++++++++++++++++++to 4.9373e-007
Heightened Def Con from 4.9373e-007 ++++++++++++++++++++to 4.9373e-007
Heightened Def Con from 4.9373e-007 ++++++++++++++++++++to 4.9373e-007
Heightened Def Con from 4.9373e-007 ++++++++++++++++++++to 4.9373e-007
Heightened Def Con from 4.9373e-007 ++++++++++++++++++++to 4.9373e-007
Heightened Def Con from 4.9373e-007 ++++++++++++++++++++to 4.9373e-007
Heightened Def Con from 4.9373e-007 ++++++++++++++++++++to 4.9373e-007
Heightened Def Con from 4.9373e-007 ++++++++++++++++++++to 4.9373e-007
Heightened Def Con from 4.9373e-007 ++++++++++++++++++++to 4.9373e-007
Heightened Def Con from 4.9373e-007 +++++++++++++++to 4.9373e-007
Heightened Def Con from 4.9373e-007 ++++++++++++++++++++to 4.9373e-007
Heightened Def Con from 4.9373e-007 ++++++++++++++++++++to 4.9373e-007
Heightened Def Con from 4.9373e-007 ++++++++++++++++++++to 4.9373e-007
Heightened Def Con from 4.9373e-007 ++++++++++++++++++++to 4.9373e-007
Heightened Def Con from 4.9373e-007 ++++++++++++++++++++to 4.9373e-007
Heightened Def Con from 4.9373e-007 ++++++++++++++++++++to 4.9373e-007
Heightened Def Con from 4.9373e-007 ++++++++++++++++++++to 4.9373e-007
Heightened Def Con from 4.9373e-007 ++++++++++++++++++++to 4.9373e-007
Heightened Def Con from 4.9373e-007 ++++++++++++++++++++to 4.9373e-007
Heightened Def Con from 4.9373e-007 ++++++++++++++++++++to 4.9373e-007
Heightened Def Con from 4.9373e-007 ++++++++++++++++++++to 4.9373e-007
Heightened Def Con from 4.9373e-007 ++++++++++++++++++++to 4.9373e-007
Heightened Def Con from 4.9373e-007 ++++++++++++++++++++to 4.9373e-007
Heightened Def Con from 4.9373e-007 ++++++++++++++++++++to 4.9373e-007
Heightened Def Con from 4.9373e-007 ++++++++++++++++++++to 4.9373e-007
Heightened Def Con from 4.9373e-007 ++++++++++++++++++++to 4.9373e-007
Heightened Def Con from 4.9373e-007 ++++++++++++++++++++to 4.9373e-007
Heightened Def Con from 4.9373e-007 ++++++++++++++++++++to 4.9373e-007
Heightened Def Con from 4.9373e-007 ++++++++++++++++++++to 4.9373e-007
Heightened Def Con from 4.9373e-007 ++++++++++++++++++++to 4.9373e-007
Heightened Def Con from 4.9373e-007 ++++++++++++++++++++to 4.9373e-007
Heightened Def Con from 4.9373e-007 ++++++++++++++++++++to 4.9373e-007
Heightened Def Con from 4.9373e-007 ++++++++++++++++++++to 4.9373e-007
Heightened Def Con from 4.9373e-007 ++++++++++++++++++++to 4.9373e-007
Heightened Def Con from 4.9373e-007 ++++++++++++++++++++to 4.9373e-007
Heightened Def Con from 4.9373e-007 ++++++++++++++++++++to 4.9373e-007
Heightened Def Con from 4.9373e-007 ++++++++++++++++++++to 4.9373e-007
Heightened Def Con from 4.9373e-007 ++++++++++++++++++++to 4.9373e-007
Heightened Def Con from 4.9373e-007 ++++++++++++++++++++to 4.9373e-007
Heightened Def Con from 4.9373e-007 ++++++++++++++++++++to 4.9373e-007
Heightened Def Con from 4.9373e-007 ++++++++++++++++++++to 4.9373e-007
Heightened Def Con from 4.9373e-007 ++++++++++++++++++++to 4.9373e-007
Heightened Def Con from 4.9373e-007 ++++++++++++++++++++to 4.9373e-007
Heightened Def Con from 4.9373e-007 ++++++++++++++++++++to 4.9373e-007
Heightened Def Con from 4.9373e-007 ++++++++++++++++++++to 4.9373e-007
Heightened Def Con from 4.9373e-007 ++++++++++++++++++++to 4.9373e-007
Heightened Def Con from 4.9373e-007 ++++++++++++++++++++to 4.9373e-007
Heightened Def Con from 4.9373e-007 ++++++++++++++++++++to 4.9373e-007
Heightened Def Con from 4.9373e-007 ++++++++++++++++++++to 4.9373e-007
Heightened Def Con from 4.9373e-007 ++++++++++++++++++++to 4.9373e-007
Heightened Def Con from 4.9373e-007 ++++++++++++++++++++to 4.9373e-007
Heightened Def Con from 4.9373e-007 ++++++++++++++++++++to 4.9373e-007
Heightened Def Con from 4.9373e-007 ++++++++++++++++++++to 4.9373e-007
Heightened Def Con from 4.9373e-007 ++++++++++++++++++++to 4.9373e-007
Heightened Def Con from 4.9373e-007 ++++++++++++++++++++to 4.9373e-007
Heightened Def Con from 4.9373e-007 ++++++++++++++++++++to 4.9373e-007
Heightened Def Con from 4.9373e-007 ++++++++++++++++++++to 4.9373e-007
Heightened Def Con from 4.9373e-007 ++++++++++++++++++++to 4.9373e-007
Heightened Def Con from 4.9373e-007 ++++++++++++++++++++to 4.9373e-007
Heightened Def Con from 4.9373e-007 ++++++++++++++++++++to 4.9373e-007
Heightened Def Con from 4.9373e-007 ++++++++++++++++++++to 4.9373e-007
Heightened Def Con from 4.9373e-007 ++++++++++++++++++++to 4.9373e-007
Heightened Def Con from 4.9373e-007 ++++++++++++++++++++to 4.9373e-007
Heightened Def Con from 4.9373e-007 ++++++++++++++++++++to 4.9373e-007
Heightened Def Con from 4.9373e-007 ++++++++++++++++++++to 4.9373e-007
Heightened Def Con from 4.9373e-007 ++++++++++++++++++++to 4.9373e-007
Heightened Def Con from 4.9373e-007 ++++++++++++++++++++to 4.9373e-007
Heightened Def Con from 4.9373e-007 ++++++++++++++++++++to 4.9373e-007
Heightened Def Con from 4.9373e-007 ++++++++++++++++++++to 4.9373e-007
Heightened Def Con from 4.9373e-007 ++++++++++++++++++++to 4.9373e-007
Heightened Def Con from 4.9373e-007 ++++++++++++++++++++to 4.9373e-007
Heightened Def Con from 4.9373e-007 ++++++++++++++++++++to 4.9373e-007
Heightened Def Con from 4.9373e-007 ++++++++++++++++++++to 4.9373e-007
Heightened Def Con from 4.9373e-007 ++++++++++++++++++++to 4.9373e-007
Heightened Def Con from 4.9373e-007 ++++++++++++++++++++to 4.9373e-007
Heightened Def Con from 4.9373e-007 ++++++++++++++++++++to 4.9373e-007
Heightened Def Con from 4.9373e-007 ++++++++++++++++++++to 4.9373e-007
Heightened Def Con from 4.9373e-007 ++++++++++++++++++++to 4.9373e-007
Heightened Def Con from 4.9373e-007 ++++++++++++++++++++to 4.9373e-007
Heightened Def Con from 4.9373e-007 ++++++++++++++++++++to 4.9373e-007
Heightened Def Con from 4.9373e-007 ++++++++++++++++++++to 4.9373e-007
Heightened Def Con from 4.9373e-007 ++++++++++++++++++++to 4.9373e-007
Heightened Def Con from 4.9373e-007 ++++++++++++++++++++to 4.9373e-007
Heightened Def Con from 4.9373e-007 ++++++++++++++++++++to 4.9373e-007
Heightened Def Con from 4.9373e-007 ++++++++++++++++++++to 4.9373e-007
Heightened Def Con from 4.9373e-007 ++++++++++++++++++++to 4.9373e-007
Heightened Def Con from 4.9373e-007 ++++++++++++++++++++to 4.9373e-007
Heightened Def Con from 4.9373e-007 ++++++++++++++++++++to 4.9373e-007
Heightened Def Con from 4.9373e-007 ++++++++++++++++++++to 4.9373e-007
Heightened Def Con from 4.9373e-007 ++++++++++++++++++++to 4.9373e-007
Heightened Def Con from 4.9373e-007 ++++++++++++++++++++to 4.9373e-007
Heightened Def Con from 4.9373e-007 ++++++++++++++++++++to 4.9373e-007
Heightened Def Con from 4.9373e-007 ++++++++++++++++++++to 4.9373e-007
Heightened Def Con from 4.9373e-007 ++++++++++++++++++++to 4.9373e-007
Heightened Def Con from 4.9373e-007 ++++++++++++++++++++to 4.9373e-007
Heightened Def Con from 4.9373e-007 ++++++++++++++++++++to 4.9373e-007
Heightened Def Con from 4.9373e-007 ++++++++++++++++++++to 4.9373e-007
Heightened Def Con from 4.9373e-007 ++++++++++++++++++++to 4.9373e-007
Heightened Def Con from 4.9373e-007 ++++++++++++++++++++to 4.9373e-007
Heightened Def Con from 4.9373e-007 ++++++++++++++++++++to 4.9373e-007
Heightened Def Con from 4.9373e-007 ++++++++++++++++++++to 4.9373e-007
Heightened Def Con from 4.9373e-007 ++++++++++++++++++++to 4.9373e-007
Heightened Def Con from 4.9373e-007 ++++++++++++++++++++to 4.9373e-007
Heightened Def Con from 4.9373e-007 ++++++++++++++++++++to 4.9373e-007
Heightened Def Con from 4.9373e-007 ++++++++++++++++++++to 4.9373e-007
Heightened Def Con from 4.9373e-007 ++++++++++++++++++++to 4.9373e-007
Heightened Def Con from 4.9373e-007 ++++++++++++++++++++to 4.9373e-007
Heightened Def Con from 4.9373e-007 ++++++++++++++++++++to 4.9373e-007
Heightened Def Con from 4.9373e-007 ++++++++++++++++++++to 4.9373e-007
Heightened Def Con from 4.9373e-007 ++++++++++++++++++++to 4.9373e-007
Heightened Def Con from 4.9373e-007 ++++++++++++++++++++to 4.9373e-007
Heightened Def Con from 4.9373e-007 ++++++++++++++++++++to 4.9373e-007
Heightened Def Con from 4.9373e-007 ++++++++++++++++++++to 4.9373e-007
Heightened Def Con from 4.9373e-007 ++++++++++++++++++++to 4.9373e-007
Heightened Def Con from 4.9373e-007 ++++++++++++++++++++to 4.9373e-007
Heightened Def Con from 4.9373e-007 ++++++++++++++++++++to 4.9373e-007
Heightened Def Con from 4.9373e-007 ++++++++++++++++++++to 4.9373e-007
Heightened Def Con from 4.9373e-007 ++++++++++++++++++++to 4.9373e-007
Heightened Def Con from 4.9373e-007 ++++++++++++++++++++to 4.9373e-007
Heightened Def Con from 4.9373e-007 ++++++++++++++++++++to 4.9373e-007
Heightened Def Con from 4.9373e-007 ++++++++++++++++++++to 4.9373e-007
Heightened Def Con from 4.9373e-007 ++++++++++++++++++++to 4.9373e-007
Heightened Def Con from 4.9373e-007 ++++++++++++++++++++to 4.9373e-007
Heightened Def Con from 4.9373e-007 ++++++++++++++++++++to 4.9373e-007
Heightened Def Con from 4.9373e-007 ++++++++++++++++++++to 4.9373e-007
Heightened Def Con from 4.9373e-007 ++++++++++++++++++++to 4.9373e-007
Heightened Def Con from 4.9373e-007 ++++++++++++++++++++to 4.9373e-007
Heightened Def Con from 4.9373e-007 ++++++++++++++++++++to 4.9373e-007
Heightened Def Con from 4.9373e-007 ++++++++++++++++++++to 4.9373e-007
Heightened Def Con from 4.9373e-007 ++++++++++++++++++++to 4.9373e-007
Heightened Def Con from 4.9373e-007 ++++++++++++++++++++to 4.9373e-007
Heightened Def Con from 4.9373e-007 ++++++++++++++++++++to 4.9373e-007
Heightened Def Con from 4.9373e-007 ++++++++++++++++++++to 4.9373e-007
Heightened Def Con from 4.9373e-007 ++++++++++++++++++++to 4.9373e-007
Heightened Def Con from 4.9373e-007 ++++++++++++++++++++to 4.9373e-007
Heightened Def Con from 4.9373e-007 ++++++++++++++++++++to 4.9373e-007
Heightened Def Con from 4.9373e-007 ++++++++++++++++++++to 4.9373e-007
Heightened Def Con from 4.9373e-007 ++++++++++++++++++++to 4.9373e-007
Heightened Def Con from 4.9373e-007 ++++++++++++++++++++to 4.9373e-007
Heightened Def Con from 4.9373e-007 ++++++++++++++++++++to 4.9373e-007
Heightened Def Con from 4.9373e-007 ++++++++++++++++++++to 4.9373e-007
Heightened Def Con from 4.9373e-007 ++++++++++++++++++++to 4.9373e-007
Heightened Def Con from 4.9373e-007 ++++++++++++++++++++to 4.9373e-007
Heightened Def Con from 4.9373e-007 ++++++++++++++++++++to 4.9373e-007
Heightened Def Con from 4.9373e-007 ++++++++++++++++++++to 4.9373e-007
Heightened Def Con from 4.9373e-007 ++++++++++++++++++++to 4.9373e-007
Heightened Def Con from 4.9373e-007 ++++++++++++++++++++to 4.9373e-007
Heightened Def Con from 4.9373e-007 ++++++++++++++++++++to 4.9373e-007
Heightened Def Con from 4.9373e-007 ++++++++++++++++++++to 4.9373e-007
Heightened Def Con from 4.9373e-007 ++++++++++++++++++++to 4.9373e-007
Heightened Def Con from 4.9373e-007 ++++++++++++++++++++to 4.9373e-007
Heightened Def Con from 4.9373e-007 ++++++++++++++++++++to 4.9373e-007
Heightened Def Con from 4.9373e-007 ++++++++++++++++++++to 4.93731e-007
Heightened Def Con from 4.93731e-007 ++++++++++++++++++++to 4.93731e-007
Heightened Def Con from 4.93731e-007 ++++++++++++++++++++to 4.93731e-007
Heightened Def Con from 4.93731e-007 ++++++++++++++++++++to 4.93731e-007
Heightened Def Con from 4.93731e-007 ++++++++++++++++++++to 4.93731e-007
Heightened Def Con from 4.93731e-007 ++++++++++++++++++++to 4.93731e-007
Heightened Def Con from 4.93731e-007 ++++++++++++++++++++to 4.93731e-007
Heightened Def Con from 4.93731e-007 ++++++++++++++++++++to 4.93731e-007
Heightened Def Con from 4.93731e-007 +++++++++++++++++++++to 4.93731e-007
Heightened Def Con from 4.93731e-007 +++++++++++++++++++++++to 4.96731e-007
Heightened Def Con from 4.97212e-007 to 4.97212e-007
Heightened Def Con from 4.97212e-007 +to 4.97212e-007
Heightened Def Con from 4.97212e-007 +to 4.97212e-007
Heightened Def Con from 4.97212e-007 +to 4.97212e-007
Heightened Def Con from 4.97212e-007 +to 4.97212e-007
Heightened Def Con from 4.97212e-007 +to 4.97212e-007
Heightened Def Con from 4.97212e-007 +to 4.97212e-007
Heightened Def Con from 4.97212e-007 +++++++++++++++++++++to 5.00212e-007
Heightened Def Con from 5.00212e-007 ++++++++++++++++++to 5.00213e-007
Heightened Def Con from 5.00314e-007 to 5.00314e-007
Heightened Def Con from 5.00314e-007 +to 5.00314e-007
Heightened Def Con from 5.00314e-007 +to 5.00314e-007
Heightened Def Con from 5.00314e-007 +to 5.00314e-007
Heightened Def Con from 5.00314e-007 +to 5.00314e-007
Heightened Def Con from 5.00314e-007 +to 5.00314e-007
Heightened Def Con from 5.00314e-007 +++++++++++++++++to 5.00314e-007
Heightened Def Con from 5.00314e-007 +++++++++++++++++++to 5.00314e-007
Heightened Def Con from 5.00314e-007 ++++++++++++++++++++to 5.03314e-007
Heightened Def Con from 0.000147 to 0.000147002
Heightened Def Con from 0.000147002 +to 0.000147002
Heightened Def Con from 0.000147002 to 0.000147004
Heightened Def Con from 0.000158004 to 0.000158006
Heightened Def Con from 0.000190005 to 0.000190013

Date: Sun Apr 11 11:06:14 2010
Total elapsed time: 343.244 seconds.

tnom = 27
temp = 27
method = modified trap
totiter = 4162795
traniter = 4162747
tranpoints = 391537
accept = 48964
rejected = 376128
matrix size = 183
fillins = 261
solver = Alternate
Thread vector: 78.8/49.5[3] 19.5/12.0[3] 17.1/8.8[3] 4.1/21.9[1]  2592/500
Matrix Compiler1: 32,5 KB object code size  20.8/13.2/[7.4]
Matrix Compiler2: 22,9 KB object code size  8.6/21.0/[4.9]


